##########                 Name:              T536899
##########          Protonation:                   26
##########               SMILES:   c1ccc(c(c1)CNc2[nH+]c(nc(n2)NCCc3ccc(cc3)O)NC4CC[NH2+]CC4)c5ccc(cc5)C(F)(F)F
##########            Long Name:   ethyl)phenyl]phenyl]methylamino]-1,3,5-triazin-5-ium-2-yl]amino]ethyl]phenol
##########          FlexRecCode: 1
##########               Number:                   91
##########   Ligand Source File: /raidb/db2/rgc/tcams/tcams-0001699.db2.gz
##########           GlobalRank: 1
##########                 Rank:                    1
##########               Setnum:                  309
##########             Matchnum:                 1161
##########                Cloud:                    1
##########        Electrostatic:           -70.183495
##########        Van der Waals:           -31.340956
##########  Ligand Polar Desolv:            23.173046
########## Ligand Apolar Desolv:            -4.091364
##########      Internal Energy:             0.000000
##########      Receptor Energy: 0.0
########## Receptor Desolvation:             0.000000
########## Receptor Hydrophobic:             0.000000
##########         Total Energy: -82.44
##########        Ligand Charge:             2.000000
##########            Arbitrary:    +999.9990
##########     heavy atom count:   41
##########           pose count:    1
##########        Ligand Energy:             0.000000
# num electro vdwattr vdwrepu polsolv apolsol rdesolv rhydroe totalscore fullpol fullapo
#   1    2.68   -0.78    0.11   -1.00    0.26    0.00    0.00       1.27   -4.53    1.19
#   2   -0.56   -0.39    0.02    0.05   -0.05    0.00    0.00      -0.93    0.31   -0.31
#   3    0.26   -0.16    0.00   -0.14   -0.03    0.00    0.00      -0.06   -2.14   -0.46
#   4    0.12   -0.08    0.00   -0.06   -0.02    0.00    0.00      -0.04   -1.48   -0.46
#   5    0.11   -0.11    0.00   -0.07   -0.02    0.00    0.00      -0.08   -1.30   -0.36
#   6    0.06   -0.04    0.00   -0.07   -0.01    0.00    0.00      -0.06   -1.82   -0.23
#   7   -0.20   -0.05    0.00    0.15   -0.02    0.00    0.00      -0.12    3.71   -0.43
#   8    1.16   -0.14    0.00   -1.15    0.12    0.00    0.00      -0.01  -16.96    1.73
#   9   -5.36   -0.19    0.00    1.49   -0.39    0.00    0.00      -4.45   18.30   -4.81
#  10    6.76   -0.25    0.00   -2.07    0.22    0.00    0.00       4.66  -20.27    2.12
#  11  -15.30   -0.80    0.11    5.50   -1.05    0.00    0.00     -11.55   25.19   -4.80
#  12   17.03   -1.42    0.31   -7.18    0.43    0.00    0.00       9.17  -25.51    1.51
#  13   -1.60   -0.48    0.03    1.07   -0.05    0.00    0.00      -1.03    4.33   -0.22
#  14    2.69   -0.37    0.02   -1.86   -0.05    0.00    0.00       0.43   -8.43   -0.24
#  15    0.11   -0.62    0.05    0.14   -0.16    0.00    0.00      -0.47    0.43   -0.47
#  16   17.23   -1.69    0.46  -11.14    0.39    0.00    0.00       5.24  -25.13    0.89
#  17  -17.44   -0.06    0.00   10.23    0.25    0.00    0.00      -7.02   22.91    0.56
#  18  -15.60   -0.04    0.00    8.79    0.21    0.00    0.00      -6.64   24.43    0.57
#  19    0.13   -1.78    0.71    0.35   -0.22    0.00    0.00      -0.82    0.75   -0.47
#  20    2.13   -1.07    0.25   -2.65   -0.09    0.00    0.00      -1.42   -7.19   -0.24
#  21   21.24   -1.80    0.92   -6.14    0.26    0.00    0.00      14.48  -23.05    0.99
#  22  -22.91   -0.13    0.03    6.56    0.10    0.00    0.00     -16.35   21.41    0.32
#  23  -15.75   -0.67    0.09    4.53   -0.91    0.00    0.00     -12.72   23.82   -4.81
#  24   16.75   -0.79    0.11   -5.04    0.37    0.00    0.00      11.40  -22.69    1.68
#  25   -1.63   -0.45    0.05    0.91   -0.07    0.00    0.00      -1.19    4.61   -0.33
#  26    1.73   -0.87    0.09   -0.58   -0.10    0.00    0.00       0.28   -2.17   -0.37
#  27    1.00   -1.05    0.13   -0.66   -0.14    0.00    0.00      -0.71   -2.08   -0.45
#  28    1.41   -1.41    0.16   -1.44   -0.20    0.00    0.00      -1.49   -3.42   -0.47
#  29    1.38   -2.62    1.05   -1.44   -0.22    0.00    0.00      -1.86   -3.01   -0.47
#  30    2.04   -2.54    1.04   -1.46   -0.22    0.00    0.00      -1.14   -3.06   -0.46
#  31    0.64   -1.05    0.06   -0.36   -0.14    0.00    0.00      -0.85   -0.98   -0.38
#  32    0.54   -1.02    0.06   -0.01   -0.12    0.00    0.00      -0.57   -0.04   -0.33
#  33    2.79   -1.74    0.33   -1.04   -0.19    0.00    0.00       0.15   -2.55   -0.46
#  34    1.37   -2.52    0.92   -0.81   -0.18    0.00    0.00      -1.22   -1.92   -0.44
#  35    4.15   -1.51    0.22   -1.68   -0.15    0.00    0.00       1.03   -4.14   -0.38
#  36    2.07   -1.64    0.53   -0.59   -0.17    0.00    0.00       0.19   -1.56   -0.44
#  37    3.14   -1.24    0.21   -0.99   -0.15    0.00    0.00       0.96   -2.42   -0.37
#  38  -11.72   -1.03    0.10    3.71   -0.03    0.00    0.00      -8.98    7.69   -0.07
#  39    3.95   -1.68    0.46   -1.58   -0.26    0.00    0.00       0.89   -2.95   -0.48
#  40    3.61   -0.68    0.08   -1.21   -0.18    0.00    0.00       1.61   -2.98   -0.45
#  41    4.12   -1.13    0.14   -1.49   -0.25    0.00    0.00       1.38   -2.65   -0.45
#  42    6.53   -0.31    0.01   -2.44    0.25    0.00    0.00       4.03  -19.26    1.96
#  43    0.12   -0.32    0.03   -0.17   -0.05    0.00    0.00      -0.40   -1.50   -0.46
#  44    0.70   -0.50    0.04   -0.36   -0.08    0.00    0.00      -0.21   -2.09   -0.46
#  45   -4.14   -0.02    0.00    1.17    0.27    0.00    0.00      -2.73    5.33    1.22
#  46   -0.13   -0.03    0.00    0.03   -0.01    0.00    0.00      -0.13    1.39   -0.28
#  47   -0.13   -0.01    0.00    0.06   -0.01    0.00    0.00      -0.09    3.24   -0.28
#  48   -0.07   -0.01    0.00    0.04    0.00    0.00    0.00      -0.04    2.24   -0.28
#  49   -0.05   -0.01    0.00    0.05   -0.01    0.00    0.00      -0.02    2.52   -0.28
#  50   -0.30   -0.02    0.00    0.05   -0.01    0.00    0.00      -0.28    1.89   -0.28
#  51   -0.11   -0.01    0.00    0.03   -0.01    0.00    0.00      -0.10    1.53   -0.28
#  52   -0.13    0.00    0.00    0.62    0.03    0.00    0.00       0.52   11.46    0.58
#  53  -18.44   -0.06    0.00    5.86    0.20    0.00    0.00     -12.43   17.21    0.58
#  54   -0.65   -0.08    0.00    0.64   -0.02    0.00    0.00      -0.11    7.89   -0.23
#  55   -1.38   -0.05    0.00    0.21   -0.01    0.00    0.00      -1.23    4.27   -0.28
#  56   -1.38   -0.19    0.05    0.72   -0.04    0.00    0.00      -0.84    5.05   -0.28
#  57   -4.23   -0.30    0.08    1.83   -0.07    0.00    0.00      -2.68    7.36   -0.28
#  58   -2.50   -0.14    0.01    1.49   -0.04    0.00    0.00      -1.18    9.68   -0.28
#  59   -6.98   -0.99    0.83    2.92   -0.13    0.00    0.00      -4.34    6.39   -0.28
#  60   -4.96   -0.78    0.64    3.85   -0.13    0.00    0.00      -1.38    8.46   -0.28
#  61   -1.13   -0.47    0.30    0.95   -0.07    0.00    0.00      -0.43    3.71   -0.28
#  62   -0.61   -0.61    0.49    1.30   -0.08    0.00    0.00       0.49    4.60   -0.28
#  63  -16.89   -0.02    0.00    2.57    0.11    0.00    0.00     -14.23   13.39    0.58
#  64   -1.01   -0.11    0.01    0.60   -0.02    0.00    0.00      -0.52    6.33   -0.17
#  65   -0.29   -0.22    0.07    1.32   -0.04    0.00    0.00       0.84    8.74   -0.27
#  66   -1.17   -0.18    0.02    1.06   -0.04    0.00    0.00      -0.32    6.70   -0.28
#  67   -1.74   -0.26    0.02    0.74   -0.08    0.00    0.00      -1.32    2.70   -0.28
#  68   -2.23   -0.87    0.62    0.76   -0.15    0.00    0.00      -1.87    1.46   -0.28
#  69   -3.67   -1.23    2.53    0.75   -0.13    0.00    0.00      -1.75    1.58   -0.28
#  70   -4.87   -0.40    0.06    0.99   -0.11    0.00    0.00      -4.33    2.54   -0.28
#  71   -3.48   -1.23    2.16    0.72   -0.13    0.00    0.00      -1.95    1.54   -0.27
#  72   -5.10   -0.63    0.56    1.89   -0.10    0.00    0.00      -3.37    5.17   -0.27
#  73   -3.18   -0.29    0.06    2.84   -0.08    0.00    0.00      -0.65    8.48   -0.24
#  74   -0.01   -0.13    0.04    0.27   -0.03    0.00    0.00       0.14    2.83   -0.28
#  75   -0.88   -0.18    0.02    0.22   -0.05    0.00    0.00      -0.87    1.17   -0.28

@<TRIPOS>MOLECULE
          T536899        26
   75    79     0     0     0



@<TRIPOS>ATOM
      1 O1          9.4040   -13.0630    91.6476 O.3        1          -0.4969
      2 C1          8.3969   -12.7475    90.7914 C.ar       1           0.1184
      3 C2          8.6782   -12.4600    89.4637 C.ar       1          -0.1431
      4 C3          7.6525   -12.1402    88.5953 C.ar       1          -0.0932
      5 C4          6.3466   -12.1059    89.0484 C.ar       1          -0.1076
      6 C5          5.2298   -11.7561    88.0990 C.3        1          -0.0916
      7 C6          5.0041   -10.2429    88.1125 C.3        1           0.1172
      8 N1          4.6457    -9.8146    89.4668 N.pl3      1          -0.6248
      9 C7          4.9824    -8.5490    89.9021 C.ar       1           0.6775
     10 N2          5.6270    -7.7166    89.0904 N.ar       1          -0.6062
     11 C8          5.9514    -6.4974    89.5095 C.ar       1           0.6955
     12 N3          6.6203    -5.6331    88.6667 N.pl3      1          -0.6700
     13 C9          6.9727    -6.0595    87.3100 C.3        1           0.1179
     14 C10         8.3650    -6.6966    87.3176 C.3        1          -0.1773
     15 C11         9.3908    -5.6531    87.7647 C.3        1          -0.0048
     16 N4          9.3775    -4.5153    86.8369 N.4        1          -0.5091
     17 H1         10.0849    -3.8507    87.1127 H          1           0.4344
     18 H2          9.5729    -4.8433    85.9030 H          1           0.4435
     19 C12         8.0626    -3.8628    86.8570 C.3        1          -0.0036
     20 C13         6.9910    -4.8445    86.3787 C.3        1          -0.1569
     21 N5          5.6311    -6.1107    90.7405 N.ar       1          -0.6392
     22 H3          5.8677    -5.2211    91.0464 H          1           0.4281
     23 C14         4.9862    -6.9429    91.5519 C.ar       1           0.6917
     24 N6          4.6532    -6.5412    92.8296 N.pl3      1          -0.6500
     25 C15         3.9423    -7.4584    93.7240 C.3        1           0.1357
     26 C16         4.3216    -7.1623    95.1520 C.ar       1          -0.1233
     27 C17         5.4029    -7.7997    95.7266 C.ar       1          -0.0878
     28 C18         5.7522    -7.5289    97.0371 C.ar       1          -0.1076
     29 C19         5.0212    -6.6184    97.7791 C.ar       1          -0.0843
     30 C20         3.9387    -5.9752    97.2146 C.ar       1          -0.0967
     31 C21         3.5853    -6.2406    95.8930 C.ar       1          -0.0323
     32 C22         2.4253    -5.5481    95.2790 C.ar       1          -0.0228
     33 C23         2.6069    -4.3407    94.6076 C.ar       1          -0.1011
     34 C24         1.5246    -3.7013    94.0378 C.ar       1          -0.0566
     35 C25         0.2614    -4.2569    94.1325 C.ar       1          -0.1734
     36 C26         0.0753    -5.4550    94.7982 C.ar       1          -0.0712
     37 C27         1.1515    -6.1060    95.3666 C.ar       1          -0.1244
     38 C28        -0.9166    -3.5539    93.5084 C.3        1           0.5048
     39 F1         -0.4841    -2.3720    92.8974 F          1          -0.1780
     40 F2         -1.5024    -4.3872    92.5495 F          1          -0.1737
     41 F3         -1.8566    -3.2499    94.4990 F          1          -0.1684
     42 N7          4.6573    -8.1603    91.1309 N.ar       1          -0.6030
     43 C29         6.0637   -12.3924    90.3711 C.ar       1          -0.0928
     44 C30         7.0852   -12.7180    91.2424 C.ar       1          -0.1428
     45 H4          9.1093   -13.2513    92.5492 H          1           0.3961
     46 H5          9.6980   -12.4860    89.1094 H          1           0.1335
     47 H6          7.8708   -11.9163    87.5615 H          1           0.1272
     48 H7          5.4966   -12.0747    87.0913 H          1           0.0882
     49 H8          4.3162   -12.2625    88.4104 H          1           0.0879
     50 H9          5.9176    -9.7364    87.8009 H          1           0.0936
     51 H10         4.1963    -9.9899    87.4258 H          1           0.0936
     52 H11         4.1720   -10.4206    90.0577 H          1           0.4353
     53 H12         6.8570    -4.7436    88.9725 H          1           0.4489
     54 H13         6.2404    -6.7832    86.9525 H          1           0.1021
     55 H14         8.3765    -7.5389    88.0093 H          1           0.1143
     56 H15         8.6121    -7.0443    86.3146 H          1           0.1113
     57 H16         9.1414    -5.3060    88.7674 H          1           0.1489
     58 H17        10.3840    -6.1019    87.7736 H          1           0.1366
     59 H18         7.8327    -3.5419    87.8731 H          1           0.1518
     60 H19         8.0788    -2.9945    86.1983 H          1           0.1387
     61 H20         7.2196    -5.1673    85.3629 H          1           0.1320
     62 H21         6.0163    -4.3571    86.3961 H          1           0.1112
     63 H22         4.8897    -5.6517    93.1356 H          1           0.4478
     64 H23         2.8674    -7.3275    93.5990 H          1           0.0934
     65 H24         4.2138    -8.4858    93.4813 H          1           0.0919
     66 H25         5.9769    -8.5114    95.1518 H          1           0.1306
     67 H26         6.5984    -8.0304    97.4829 H          1           0.1373
     68 H27         5.2982    -6.4110    98.8022 H          1           0.1394
     69 H28         3.3685    -5.2648    97.7949 H          1           0.1368
     70 H29         3.5928    -3.9060    94.5335 H          1           0.1436
     71 H30         1.6641    -2.7652    93.5176 H          1           0.1459
     72 H31        -0.9132    -5.8842    94.8694 H          1           0.1380
     73 H32         1.0058    -7.0436    95.8822 H          1           0.1329
     74 H33         5.0428   -12.3654    90.7227 H          1           0.1275
     75 H34         6.8634   -12.9454    92.2746 H          1           0.1336
@<TRIPOS>BOND
     1    1    2 1
     2    1   45 1
     3    2   44 ar
     4    2    3 ar
     5    3    4 ar
     6    3   46 1
     7    4    5 ar
     8    4   47 1
     9    5    6 1
    10    5   43 ar
    11    6    7 1
    12    6   48 1
    13    6   49 1
    14    7    8 1
    15    7   50 1
    16    7   51 1
    17    8    9 1
    18    8   52 1
    19    9   42 ar
    20    9   10 ar
    21   10   11 ar
    22   11   12 1
    23   11   21 ar
    24   12   13 1
    25   12   53 1
    26   13   20 1
    27   13   14 1
    28   13   54 1
    29   14   15 1
    30   14   55 1
    31   14   56 1
    32   15   16 1
    33   15   57 1
    34   15   58 1
    35   16   17 1
    36   16   18 1
    37   16   19 1
    38   19   20 1
    39   19   59 1
    40   19   60 1
    41   20   61 1
    42   20   62 1
    43   21   22 1
    44   21   23 ar
    45   23   24 1
    46   23   42 ar
    47   24   25 1
    48   24   63 1
    49   25   26 1
    50   25   64 1
    51   25   65 1
    52   26   31 ar
    53   26   27 ar
    54   27   28 ar
    55   27   66 1
    56   28   29 ar
    57   28   67 1
    58   29   30 ar
    59   29   68 1
    60   30   31 ar
    61   30   69 1
    62   31   32 1
    63   32   37 ar
    64   32   33 ar
    65   33   34 ar
    66   33   70 1
    67   34   35 ar
    68   34   71 1
    69   35   36 ar
    70   35   38 1
    71   36   37 ar
    72   36   72 1
    73   37   73 1
    74   38   39 1
    75   38   40 1
    76   38   41 1
    77   43   44 ar
    78   43   74 1
    79   44   75 1
##########                 Name:              T525324
##########          Protonation:                   11
##########               SMILES:   CC(C)Nc1[nH+]c(nc(n1)NCc2cccc3c2cccc3)NCCc4c[nH+]c[nH]4
##########            Long Name:   ethyl]-N6-isopropyl-N4-(1-naphthylmethyl)-1,3,5-triazin-1-ium-2,4,6-triamine
##########          FlexRecCode: 1
##########               Number:                   40
##########   Ligand Source File: /raidb/db2/rgc/tcams/tcams-0000064.db2.gz
##########           GlobalRank: 2
##########                 Rank:                    1
##########               Setnum:                   56
##########             Matchnum:                 1170
##########                Cloud:                    1
##########        Electrostatic:           -65.660477
##########        Van der Waals:           -29.519445
##########  Ligand Polar Desolv:            25.303211
########## Ligand Apolar Desolv:            -5.932677
##########      Internal Energy:             0.000000
##########      Receptor Energy: 0.0
########## Receptor Desolvation:             0.000000
########## Receptor Hydrophobic:             0.000000
##########         Total Energy: -75.81
##########        Ligand Charge:             2.000000
##########            Arbitrary:    +999.9990
##########     heavy atom count:   30
##########           pose count:    1
##########        Ligand Energy:             0.000000
# num electro vdwattr vdwrepu polsolv apolsol rdesolv rhydroe totalscore fullpol fullapo
#   1    1.46   -0.20    0.00   -0.59   -0.02    0.00    0.00       0.65   -5.05   -0.19
#   2   -1.64   -0.39    0.03    0.83   -0.06    0.00    0.00      -1.23    4.32   -0.29
#   3    2.28   -0.88    0.21   -1.87   -0.06    0.00    0.00      -0.31   -5.80   -0.19
#   4   14.93   -0.97    0.14   -5.10    0.39    0.00    0.00       9.39  -19.98    1.51
#   5  -18.76   -1.39    0.40    5.77   -1.31    0.00    0.00     -15.28   21.16   -4.80
#   6   24.76   -3.07    4.50   -6.12    0.29    0.00    0.00      20.35  -21.06    0.99
#   7  -19.26   -0.07    0.01    5.24    0.09    0.00    0.00     -14.00   18.72    0.32
#   8  -25.10   -2.00    2.19    6.11   -1.25    0.00    0.00     -20.05   23.54   -4.81
#   9   25.18   -1.97    1.36   -6.76    0.49    0.00    0.00      18.30  -24.05    1.74
#  10   -2.47   -0.53    0.03    0.74   -0.10    0.00    0.00      -2.32    2.79   -0.37
#  11    2.10   -0.97    0.11   -1.05   -0.10    0.00    0.00       0.09   -2.60   -0.25
#  12   -1.13   -1.82    0.40    0.52   -0.30    0.00    0.00      -2.33    1.22   -0.70
#  13   -0.60   -1.73    0.38    0.02   -0.44    0.00    0.00      -2.38    0.04   -1.01
#  14   16.32   -3.89    2.89  -10.65    0.60    0.00    0.00       5.27  -20.40    1.15
#  15  -23.86   -0.26    0.16   11.25    0.33    0.00    0.00     -12.38   20.20    0.59
#  16   -9.40   -4.45    2.39    8.10   -1.93    0.00    0.00      -5.29   14.01   -3.33
#  17   13.94   -4.17    2.63  -11.28    0.61    0.00    0.00       1.74  -21.94    1.18
#  18   14.06   -0.88    0.10   -4.82    0.50    0.00    0.00       8.95  -19.01    1.96
#  19  -12.40   -1.51    0.70    4.55   -1.25    0.00    0.00      -9.92   17.46   -4.81
#  20    7.48   -2.08    1.71   -4.20    0.46    0.00    0.00       3.38  -15.85    1.74
#  21   -1.03   -0.79    0.13    1.34   -0.11    0.00    0.00      -0.46    4.52   -0.38
#  22    0.74   -1.27    0.14   -0.56   -0.13    0.00    0.00      -1.09   -1.62   -0.37
#  23    0.27   -1.38    0.18   -0.38   -0.16    0.00    0.00      -1.47   -0.98   -0.40
#  24    1.71   -1.53    0.20   -0.70   -0.21    0.00    0.00      -0.53   -1.47   -0.44
#  25    1.73   -2.14    0.35   -1.18   -0.27    0.00    0.00      -1.50   -2.08   -0.47
#  26    2.23   -3.20    1.58   -0.98   -0.27    0.00    0.00      -0.64   -1.69   -0.47
#  27    1.07   -2.73    1.54   -0.93   -0.26    0.00    0.00      -1.31   -1.67   -0.46
#  28    0.50   -1.74    0.44   -0.60   -0.21    0.00    0.00      -1.61   -1.17   -0.40
#  29    0.53   -1.82    0.22   -1.03   -0.26    0.00    0.00      -2.36   -1.79   -0.46
#  30    1.11   -1.94    0.45   -0.95   -0.24    0.00    0.00      -1.57   -1.87   -0.47
#  31    0.32   -1.65    0.32   -0.67   -0.18    0.00    0.00      -1.85   -1.67   -0.45
#  32   11.80   -1.86    1.09   -4.57    0.54    0.00    0.00       7.00  -17.80    2.12
#  33   -0.71   -0.04    0.00    0.11   -0.01    0.00    0.00      -0.64    2.79   -0.28
#  34   -1.04   -0.09    0.00    0.11   -0.02    0.00    0.00      -1.03    1.55   -0.28
#  35   -0.24   -0.04    0.00    0.04   -0.01    0.00    0.00      -0.25    0.98   -0.28
#  36   -0.84   -0.10    0.01    0.62   -0.02    0.00    0.00      -0.34    6.38   -0.23
#  37   -1.22   -1.02    2.25    0.20   -0.10    0.00    0.00       0.11    0.56   -0.28
#  38   -0.34   -0.14    0.01    0.54   -0.05    0.00    0.00       0.02    3.17   -0.28
#  39   -1.46   -0.28    0.05    0.95   -0.08    0.00    0.00      -0.82    3.46   -0.28
#  40  -11.85   -0.02    0.00    2.27    0.11    0.00    0.00      -9.49   12.19    0.58
#  41  -19.65   -0.05    0.00    5.00    0.17    0.00    0.00     -14.52   17.06    0.58
#  42   -1.64   -0.09    0.00    0.53   -0.02    0.00    0.00      -1.22    6.33   -0.27
#  43   -2.14   -0.13    0.00    0.64   -0.03    0.00    0.00      -1.66    5.85   -0.27
#  44   -4.42   -0.44    0.07    2.04   -0.12    0.00    0.00      -2.88    4.71   -0.28
#  45   -3.61   -0.36    0.11    1.56   -0.08    0.00    0.00      -2.38    5.33   -0.28
#  46   -6.02   -0.22    0.02    2.28   -0.06    0.00    0.00      -4.00   10.17   -0.28
#  47   -7.97   -1.53    1.74    9.67   -0.19    0.00    0.00       1.72   14.32   -0.28
#  48  -13.48   -0.13    0.02    9.26    0.26    0.00    0.00      -4.07   20.66    0.59
#  49   -4.91   -0.11    0.04    2.24    0.14    0.00    0.00      -2.60    9.33    0.58
#  50   -0.86   -0.19    0.01    0.49   -0.04    0.00    0.00      -0.59    2.69   -0.24
#  51    0.00   -0.45    0.27    0.68   -0.06    0.00    0.00       0.45    3.16   -0.27
#  52   -1.74   -0.24    0.02    0.88   -0.05    0.00    0.00      -1.13    3.83   -0.23
#  53   -2.59   -0.51    0.07    1.39   -0.15    0.00    0.00      -1.79    2.58   -0.28
#  54   -3.41   -1.44    2.32    0.89   -0.17    0.00    0.00      -1.81    1.50   -0.28
#  55   -1.17   -0.79    1.06    0.66   -0.16    0.00    0.00      -0.41    1.14   -0.28
#  56   -0.82   -0.60    0.21    0.72   -0.16    0.00    0.00      -0.65    1.25   -0.28
#  57   -1.98   -0.71    0.52    1.00   -0.13    0.00    0.00      -1.30    2.09   -0.28
#  58   -0.40   -0.39    0.10    1.04   -0.08    0.00    0.00       0.27    3.72   -0.28

@<TRIPOS>MOLECULE
          T525324        11
   58    61     0     0     0



@<TRIPOS>ATOM
      1 C1          9.7961    -7.7789    88.2398 C.3        1          -0.1688
      2 C2          9.5828    -7.6025    89.7447 C.3        1           0.1214
      3 C3         10.8046    -6.9135    90.3556 C.3        1          -0.1809
      4 N1          8.3922    -6.7808    89.9760 N.pl3      1          -0.6559
      5 C4          7.6376    -6.9651    91.1168 C.ar       1           0.6922
      6 N2          6.5540    -6.2228    91.3243 N.ar       1          -0.6381
      7 H1          6.2940    -5.5517    90.6739 H          1           0.4310
      8 C5          5.8272    -6.4004    92.4227 C.ar       1           0.6966
      9 N3          4.7022    -5.6303    92.6376 N.pl3      1          -0.6732
     10 C6          3.9011    -5.8259    93.8486 C.3        1           0.0939
     11 C7          3.2422    -4.5026    94.2433 C.3        1          -0.0695
     12 C8          2.4182    -4.7038    95.4889 C.2        1           0.0432
     13 C9          1.1216    -5.0631    95.5443 C.2        1           0.0218
     14 N4          0.7653    -5.1331    96.8355 N.pl3      1          -0.4734
     15 H2         -0.1165    -5.3712    97.1626 H          1           0.4727
     16 C10         1.7917    -4.8309    97.5823 C.cat      1           0.3249
     17 N5          2.8454    -4.5621    96.7816 N.pl3      1          -0.5107
     18 N6          6.1837    -7.3198    93.3143 N.ar       1          -0.6071
     19 C11         7.2670    -8.0618    93.1072 C.ar       1           0.6766
     20 N7          7.6371    -9.0163    94.0327 N.pl3      1          -0.6218
     21 C12         6.6545    -9.5254    94.9927 C.3        1           0.1646
     22 C13         7.3076   -10.5496    95.8847 C.ar       1          -0.1345
     23 C14         7.9177   -10.1529    97.0870 C.ar       1          -0.0308
     24 C15         7.9349    -8.8057    97.4868 C.ar       1          -0.1282
     25 C16         8.5347    -8.4586    98.6581 C.ar       1          -0.0955
     26 C17         9.1339    -9.4200    99.4700 C.ar       1          -0.1169
     27 C18         9.1370   -10.7338    99.1148 C.ar       1          -0.0917
     28 C19         8.5269   -11.1305    97.9125 C.ar       1          -0.0579
     29 C20         8.5086   -12.4779    97.5132 C.ar       1          -0.0715
     30 C21         7.9080   -12.8250    96.3424 C.ar       1          -0.1290
     31 C22         7.3050   -11.8642    95.5327 C.ar       1          -0.0683
     32 N8          7.9910    -7.8880    92.0056 N.ar       1          -0.6107
     33 H3          8.9256    -8.2697    87.8046 H          1           0.0935
     34 H4          9.9327    -6.8025    87.7753 H          1           0.0770
     35 H5         10.6819    -8.3903    88.0676 H          1           0.0814
     36 H6          9.4462    -8.5791    90.2092 H          1           0.0827
     37 H7         10.6526    -6.7878    91.4276 H          1           0.0848
     38 H8         11.6904    -7.5249    90.1836 H          1           0.0520
     39 H9         10.9412    -5.9370    89.8911 H          1           0.0903
     40 H10         8.1343    -6.1073    89.3275 H          1           0.4468
     41 H11         4.4419    -4.9597    91.9869 H          1           0.4479
     42 H12         3.1305    -6.5728    93.6578 H          1           0.0941
     43 H13         4.5452    -6.1671    94.6590 H          1           0.0876
     44 H14         4.0128    -3.7557    94.4340 H          1           0.1177
     45 H15         2.5982    -4.1614    93.4327 H          1           0.1331
     46 H16         0.4809    -5.2602    94.6975 H          1           0.2276
     47 H17         1.7987    -4.8041    98.6619 H          1           0.2718
     48 H18         3.7379    -4.3132    97.0689 H          1           0.4678
     49 H19         8.5476    -9.3500    94.0475 H          1           0.4365
     50 H20         6.2791    -8.7015    95.5998 H          1           0.0986
     51 H21         5.8265    -9.9871    94.4549 H          1           0.0986
     52 H22         7.4749    -8.0498    96.8676 H          1           0.1189
     53 H23         8.5469    -7.4225    98.9628 H          1           0.1254
     54 H24         9.6032    -9.1178   100.3945 H          1           0.1301
     55 H25         9.6059   -11.4676    99.7535 H          1           0.1347
     56 H26         8.9692   -13.2337    98.1320 H          1           0.1363
     57 H27         7.8956   -13.8611    96.0376 H          1           0.1330
     58 H28         6.8316   -12.1669    94.6104 H          1           0.1275
@<TRIPOS>BOND
     1    1    2 1
     2    1   33 1
     3    1   34 1
     4    1   35 1
     5    2    3 1
     6    2    4 1
     7    2   36 1
     8    3   37 1
     9    3   38 1
    10    3   39 1
    11    4    5 1
    12    4   40 1
    13    5   32 ar
    14    5    6 ar
    15    6    7 1
    16    6    8 ar
    17    8    9 1
    18    8   18 ar
    19    9   10 1
    20    9   41 1
    21   10   11 1
    22   10   42 1
    23   10   43 1
    24   11   12 1
    25   11   44 1
    26   11   45 1
    27   12   17 1
    28   12   13 2
    29   13   14 1
    30   13   46 1
    31   14   15 1
    32   14   16 2
    33   16   17 1
    34   16   47 1
    35   17   48 1
    36   18   19 ar
    37   19   20 1
    38   19   32 ar
    39   20   21 1
    40   20   49 1
    41   21   22 1
    42   21   50 1
    43   21   51 1
    44   22   31 ar
    45   22   23 ar
    46   23   28 ar
    47   23   24 ar
    48   24   25 ar
    49   24   52 1
    50   25   26 ar
    51   25   53 1
    52   26   27 ar
    53   26   54 1
    54   27   28 ar
    55   27   55 1
    56   28   29 ar
    57   29   30 ar
    58   29   56 1
    59   30   31 ar
    60   30   57 1
    61   31   58 1
##########                 Name:              T535419
##########          Protonation:                   66
##########               SMILES:   ]3CC[C@@H](CC3)NC(=O)[C@@H]([NH+]4CC[C@@H](CC4)Cc5ccccc5)c6oc7c(c6)cccc7)cc1
##########            Long Name:   [(2S)-2-hydroxy-2-(6-methoxy-4-quinolyl)ethyl]piperidin-1-ium-4-yl]acetamide
##########          FlexRecCode: 1
##########               Number:                   43
##########   Ligand Source File: /raidb/db2/rgc/tcams/tcams-0001518.db2.gz
##########           GlobalRank: 3
##########                 Rank:                    1
##########               Setnum:                   81
##########             Matchnum:                 2910
##########                Cloud:                    1
##########        Electrostatic:           -44.682930
##########        Van der Waals:           -38.433117
##########  Ligand Polar Desolv:            12.243256
########## Ligand Apolar Desolv:            -4.682580
##########      Internal Energy:             0.000000
##########      Receptor Energy: 0.0
########## Receptor Desolvation:             0.000000
########## Receptor Hydrophobic:             0.000000
##########         Total Energy: -75.56
##########        Ligand Charge:             2.000000
##########            Arbitrary:    +999.9990
##########     heavy atom count:   47
##########           pose count:    1
##########        Ligand Energy:             0.000000
# num electro vdwattr vdwrepu polsolv apolsol rdesolv rhydroe totalscore fullpol fullapo
#   1    0.00   -0.04    0.00    0.01    0.00    0.00    0.00      -0.03    0.21    0.03
#   2    0.13   -0.06    0.00   -0.20    0.03    0.00    0.00      -0.10   -5.95    0.93
#   3   -0.07   -0.11    0.00    0.07   -0.01    0.00    0.00      -0.13    1.61   -0.31
#   4    0.00   -0.15    0.00   -0.17   -0.03    0.00    0.00      -0.34   -2.64   -0.43
#   5   -0.01   -0.40    0.05   -0.21   -0.06    0.00    0.00      -0.63   -1.63   -0.46
#   6   -0.01   -0.47    0.03    0.06   -0.13    0.00    0.00      -0.52    0.34   -0.73
#   7    0.47   -1.29    0.32   -2.20    0.61    0.00    0.00      -2.08   -7.19    2.00
#   8   -0.99   -1.40    0.23    0.58   -0.37    0.00    0.00      -1.95    1.52   -0.97
#   9    1.41   -0.78    0.05   -1.11   -0.13    0.00    0.00      -0.57   -3.62   -0.44
#  10    0.24   -0.41    0.01   -0.18   -0.05    0.00    0.00      -0.39   -1.16   -0.35
#  11   -0.33   -0.26    0.01    0.92   -0.02    0.00    0.00       0.32    5.35   -0.11
#  12    7.18   -0.70    0.05   -5.45    0.43    0.00    0.00       1.51  -20.23    1.58
#  13    0.17   -0.13    0.00   -0.09   -0.03    0.00    0.00      -0.08   -1.09   -0.33
#  14    3.77   -0.24    0.01   -1.79    0.03    0.00    0.00       1.78  -15.46    0.27
#  15   -4.79   -0.01    0.00    1.63    0.04    0.00    0.00      -3.13   21.61    0.49
#  16    0.03   -0.19    0.01    0.01   -0.04    0.00    0.00      -0.19    0.07   -0.38
#  17    2.18   -0.60    0.17   -1.26   -0.05    0.00    0.00       0.44   -6.30   -0.24
#  18   -2.83   -0.46    0.05    1.11   -0.05    0.00    0.00      -2.18    5.10   -0.24
#  19    4.10   -0.72    0.14   -1.60   -0.06    0.00    0.00       1.86   -6.14   -0.24
#  20    0.19   -0.26    0.01   -0.14   -0.06    0.00    0.00      -0.26   -0.90   -0.37
#  21   22.85   -1.83    1.06   -7.76    0.57    0.00    0.00      14.89  -28.06    2.06
#  22  -12.21   -0.81    0.12    4.58   -0.11    0.00    0.00      -8.44   19.76   -0.48
#  23    6.02   -0.44    0.02   -3.61    0.07    0.00    0.00       2.05  -19.15    0.35
#  24   -2.95   -0.62    0.09    1.36   -0.05    0.00    0.00      -2.17    5.08   -0.20
#  25    6.68   -0.55    0.03   -3.28    0.02    0.00    0.00       2.89  -14.48    0.09
#  26   -3.08   -0.01    0.00    2.20    0.07    0.00    0.00      -0.83   15.83    0.49
#  27    0.33   -0.38    0.01   -0.04   -0.08    0.00    0.00      -0.16   -0.18   -0.35
#  28    1.98   -0.35    0.01   -0.93   -0.05    0.00    0.00       0.66   -4.45   -0.24
#  29    2.24   -0.58    0.03   -0.86   -0.06    0.00    0.00       0.77   -2.65   -0.17
#  30    1.96   -1.06    0.20   -0.96   -0.08    0.00    0.00       0.07   -2.39   -0.19
#  31    2.23   -1.66    0.27   -0.64   -0.14    0.00    0.00       0.05   -1.53   -0.33
#  32    1.65   -2.48    1.84   -1.06   -0.18    0.00    0.00      -0.24   -2.70   -0.45
#  33    1.74   -2.56    1.54   -1.07   -0.21    0.00    0.00      -0.57   -2.42   -0.47
#  34    2.58   -1.95    0.36   -1.40   -0.26    0.00    0.00      -0.67   -2.57   -0.47
#  35    2.75   -1.83    0.19   -1.58   -0.28    0.00    0.00      -0.74   -2.68   -0.47
#  36    3.20   -2.37    0.77   -1.20   -0.18    0.00    0.00       0.21   -2.43   -0.37
#  37    2.94   -0.73    0.04   -1.97   -0.09    0.00    0.00       0.19   -4.62   -0.22
#  38    0.23   -0.62    0.03    0.03   -0.12    0.00    0.00      -0.44    0.10   -0.34
#  39    1.40   -1.00    0.08   -0.18   -0.07    0.00    0.00       0.23   -0.54   -0.20
#  40    2.50   -1.82    0.40   -1.56   -0.22    0.00    0.00      -0.70   -3.55   -0.51
#  41    2.71   -2.05    0.57   -1.80   -0.20    0.00    0.00      -0.77   -3.98   -0.44
#  42    1.10   -3.62    2.39   -0.93   -0.26    0.00    0.00      -1.32   -1.66   -0.47
#  43    2.48   -2.73    0.76   -1.88   -0.28    0.00    0.00      -1.65   -3.21   -0.47
#  44    0.91   -2.01    0.53   -1.14   -0.25    0.00    0.00      -1.97   -2.16   -0.47
#  45    1.14   -1.66    0.36   -1.14   -0.20    0.00    0.00      -1.49   -2.74   -0.48
#  46   -0.98   -1.27    0.12    0.31   -0.13    0.00    0.00      -1.95    0.82   -0.35
#  47    2.18   -0.82    0.05   -1.83    0.09    0.00    0.00      -0.32   -5.66    0.28
#  48    0.05   -0.28    0.01   -0.18   -0.05    0.00    0.00      -0.44   -1.53   -0.40
#  49    0.19   -0.16    0.00   -0.17   -0.03    0.00    0.00      -0.18   -2.59   -0.43
#  50   -0.01   -0.01    0.00    0.02    0.00    0.00    0.00      -0.01    1.07   -0.27
#  51   -0.01   -0.01    0.00    0.04    0.00    0.00    0.00       0.01    2.61   -0.28
#  52    0.00   -0.01    0.00    0.01    0.00    0.00    0.00       0.00    0.83   -0.27
#  53    0.02   -0.02    0.00    0.05   -0.01    0.00    0.00       0.05    1.95   -0.22
#  54    0.15   -0.16    0.05    0.09   -0.04    0.00    0.00       0.10    0.67   -0.28
#  55   -1.65   -0.60    0.21    1.33   -0.12    0.00    0.00      -0.84    3.01   -0.28
#  56   -2.64   -0.18    0.01    1.59   -0.05    0.00    0.00      -1.27    7.16   -0.22
#  57   -0.30   -0.08    0.00    0.53   -0.02    0.00    0.00       0.14    5.89   -0.18
#  58   -7.97   -0.02    0.00    4.62    0.28    0.00    0.00      -3.09   16.35    1.00
#  59   -0.48   -0.04    0.00    0.32   -0.01    0.00    0.00      -0.22    6.10   -0.28
#  60   -0.25   -0.02    0.00    0.23   -0.01    0.00    0.00      -0.05    7.97   -0.28
#  61   -0.90   -0.03    0.00    0.16   -0.01    0.00    0.00      -0.77    5.52   -0.28
#  62   -0.81   -0.06    0.00    0.46   -0.02    0.00    0.00      -0.42    7.62   -0.28
#  63   -1.39   -0.16    0.04    0.46   -0.03    0.00    0.00      -1.08    3.77   -0.28
#  64   -1.57   -0.61    0.58    1.65   -0.07    0.00    0.00      -0.01    6.75   -0.28
#  65   -1.75   -0.06    0.00    0.13   -0.01    0.00    0.00      -1.70    2.32   -0.26
#  66   -3.69   -0.31    0.07    0.80   -0.06    0.00    0.00      -3.19    3.51   -0.28
#  67   -2.98   -0.44    0.22    1.77   -0.08    0.00    0.00      -1.52    6.24   -0.28
#  68   -2.44   -0.09    0.00    0.47   -0.02    0.00    0.00      -2.08    6.18   -0.22
#  69   -1.46   -0.04    0.00    0.25   -0.01    0.00    0.00      -1.26    5.79   -0.28
#  70  -20.53   -0.10    0.02    6.98    0.20    0.00    0.00     -13.43   20.23    0.58
#  71   -7.45   -0.46    0.43    3.18   -0.06    0.00    0.00      -4.36   14.50   -0.28
#  72   -3.74   -0.19    0.01    1.82   -0.04    0.00    0.00      -2.14    9.18   -0.22
#  73   -2.22   -0.08    0.00    0.52   -0.02    0.00    0.00      -1.80    6.51   -0.22
#  74   -1.50   -0.09    0.00    0.32   -0.02    0.00    0.00      -1.29    3.88   -0.28
#  75   -0.78   -0.12    0.01    0.25   -0.03    0.00    0.00      -0.67    2.45   -0.28
#  76   -3.12   -0.27    0.07    0.18   -0.07    0.00    0.00      -3.21    0.75   -0.28
#  77   -1.62   -0.74    0.77    2.39   -0.07    0.00    0.00       0.73    6.05   -0.17
#  78   -2.29   -0.31    0.04    0.77   -0.08    0.00    0.00      -1.86    2.72   -0.28
#  79   -0.89   -0.94    1.95    0.67   -0.08    0.00    0.00       0.72    2.43   -0.28
#  80   -1.31   -0.87    1.14    0.36   -0.11    0.00    0.00      -0.81    0.90   -0.28
#  81   -3.00   -0.74    0.64    0.35   -0.12    0.00    0.00      -2.88    0.82   -0.28
#  82   -3.03   -0.40    0.03    1.10   -0.14    0.00    0.00      -2.43    2.27   -0.28
#  83   -3.16   -0.79    0.49    2.81   -0.11    0.00    0.00      -0.76    6.19   -0.25
#  84   -3.12   -0.33    0.04    0.76   -0.09    0.00    0.00      -2.75    1.85   -0.22
#  85   -1.27   -0.26    0.03    0.69   -0.09    0.00    0.00      -0.90    2.22   -0.28
#  86   -2.51   -0.21    0.01    0.99   -0.05    0.00    0.00      -1.78    4.17   -0.22
#  87   -3.75   -0.24    0.02    1.91   -0.05    0.00    0.00      -2.12    8.24   -0.20
#  88   -5.23   -0.45    0.10    4.74   -0.14    0.00    0.00      -0.98    9.77   -0.28
#  89   -3.01   -1.25    1.38    2.19   -0.16    0.00    0.00      -0.85    3.80   -0.28
#  90   -3.54   -0.83    0.33    1.26   -0.16    0.00    0.00      -2.95    2.16   -0.28
#  91   -2.13   -0.50    0.22    0.85   -0.11    0.00    0.00      -1.67    2.06   -0.28
#  92   -0.78   -0.39    0.10    0.68   -0.08    0.00    0.00      -0.47    2.34   -0.28
#  93   -0.16   -0.03    0.00    0.22   -0.01    0.00    0.00       0.03    7.33   -0.22

@<TRIPOS>MOLECULE
          T535419        66
   93    99     0     0     0



@<TRIPOS>ATOM
      1 C1         15.7478   -11.9783    86.3861 C.3        1           0.0194
      2 O1         14.5189   -11.2554    86.2899 O.3        1          -0.3154
      3 C2         14.3857   -10.1572    87.0792 C.ar       1           0.1612
      4 C3         15.4328    -9.7848    87.9279 C.ar       1          -0.1766
      5 C4         15.3297    -8.6913    88.7295 C.ar       1          -0.0311
      6 C5         14.1550    -7.9180    88.7100 C.ar       1           0.0984
      7 N1         14.0283    -6.8380    89.4877 N.ar       1          -0.4378
      8 C6         12.9368    -6.1126    89.4741 C.ar       1           0.1199
      9 C7         11.8566    -6.4280    88.6524 C.ar       1          -0.1297
     10 C8         11.9198    -7.5185    87.8327 C.ar       1          -0.1021
     11 C9         10.7649    -7.8801    86.9346 C.3        1           0.1368
     12 O2         10.0621    -6.6932    86.5613 O.3        1          -0.5438
     13 C10         9.8161    -8.8223    87.6781 C.3        1          -0.0458
     14 N2          9.3082    -8.1544    88.8839 N.4        1          -0.3807
     15 H1         10.0539    -7.6298    89.3160 H          1           0.4285
     16 C11         8.8110    -9.1629    89.8275 C.3        1          -0.0033
     17 C12         8.3553    -8.4787    91.1180 C.3        1          -0.1566
     18 C13         7.2365    -7.4843    90.7947 C.3        1           0.1329
     19 C14         7.7429    -6.4817    89.7539 C.3        1          -0.1582
     20 C15         8.2201    -7.2411    88.5141 C.3        1          -0.0123
     21 N3          6.8478    -6.7707    92.0138 N.am       1          -0.7021
     22 C16         5.8698    -7.2627    92.7998 C.2        1           0.5147
     23 O3          5.3114    -8.2962    92.4980 O.2        1          -0.4967
     24 C17         5.4700    -6.5287    94.0537 C.3        1           0.1088
     25 N4          4.0487    -6.7739    94.3326 N.4        1          -0.3706
     26 H2          3.8976    -7.7635    94.4589 H          1           0.4359
     27 C18         3.2408    -6.2972    93.2036 C.3        1          -0.0164
     28 C19         1.7666    -6.6232    93.4528 C.3        1          -0.1361
     29 C20         1.3069    -5.9316    94.7395 C.3        1          -0.0988
     30 C21         1.4102    -4.4146    94.5699 C.3        1          -0.0792
     31 C22         0.2155    -3.9126    93.8006 C.ar       1          -0.0989
     32 C23         0.2612    -3.8432    92.4207 C.ar       1          -0.1125
     33 C24        -0.8346    -3.3829    91.7151 C.ar       1          -0.1089
     34 C25        -1.9765    -2.9924    92.3892 C.ar       1          -0.1118
     35 C26        -2.0226    -3.0626    93.7690 C.ar       1          -0.1140
     36 C27        -0.9283    -3.5270    94.4745 C.ar       1          -0.1265
     37 C28         2.2042    -6.3798    95.8967 C.3        1          -0.1425
     38 C29         3.6617    -6.0613    95.5561 C.3        1          -0.0110
     39 C30         6.3010    -7.0209    95.2105 C.2        1          -0.0672
     40 C31         7.1139    -6.2556    95.9514 C.2        1          -0.1040
     41 C32         7.7128    -7.1453    96.9535 C.ar       1          -0.1502
     42 C33         8.6223    -6.9683    97.9951 C.ar       1          -0.0561
     43 C34         8.9847    -8.0369    98.7674 C.ar       1          -0.1233
     44 C35         8.4534    -9.2946    98.5202 C.ar       1          -0.0605
     45 C36         7.5528    -9.4887    97.4949 C.ar       1          -0.1124
     46 C37         7.1709    -8.4161    96.6985 C.ar       1           0.0779
     47 O4          6.3298    -8.2903    95.6524 O.3        1          -0.1918
     48 C38        13.0939    -8.2953    87.8498 C.ar       1          -0.0442
     49 C39        13.2327    -9.4263    87.0302 C.ar       1          -0.1841
     50 H3         15.7231   -12.8293    85.7055 H          1           0.0639
     51 H4         16.5767   -11.3230    86.1185 H          1           0.1093
     52 H5         15.8811   -12.3338    87.4078 H          1           0.0649
     53 H6         16.3369   -10.3751    87.9474 H          1           0.1468
     54 H7         16.1473    -8.4175    89.3797 H          1           0.1512
     55 H8         12.8727    -5.2475    90.1175 H          1           0.1705
     56 H9         10.9702    -5.8110    88.6640 H          1           0.1416
     57 H10        11.1418    -8.3757    86.0399 H          1           0.1353
     58 H11        10.6034    -6.0490    86.0847 H          1           0.3913
     59 H12         8.9808    -9.0839    87.0285 H          1           0.1468
     60 H13        10.3522    -9.7276    87.9629 H          1           0.1435
     61 H14         7.9697    -9.6935    89.3815 H          1           0.1363
     62 H15         9.6075    -9.8716    90.0540 H          1           0.1431
     63 H16         7.9849    -9.2290    91.8166 H          1           0.1243
     64 H17         9.1960    -7.9480    91.5650 H          1           0.1008
     65 H18         6.3760    -8.0211    90.3952 H          1           0.1152
     66 H19         6.9349    -5.8045    89.4773 H          1           0.1173
     67 H20         8.5709    -5.9095    90.1725 H          1           0.0982
     68 H21         8.5801    -6.5302    87.7704 H          1           0.1397
     69 H22         7.3917    -7.8139    88.0969 H          1           0.1371
     70 H23         7.2944    -5.9443    92.2552 H          1           0.4161
     71 H24         5.6343    -5.4599    93.9170 H          1           0.1787
     72 H25         3.3615    -5.2188    93.1007 H          1           0.1333
     73 H26         3.5712    -6.7879    92.2881 H          1           0.1286
     74 H27         1.1683    -6.2670    92.6143 H          1           0.1184
     75 H28         1.6447    -7.7015    93.5556 H          1           0.0946
     76 H29         0.2732    -6.2053    94.9510 H          1           0.1101
     77 H30         1.4361    -3.9401    95.5510 H          1           0.0642
     78 H31         2.3220    -4.1712    94.0244 H          1           0.0873
     79 H32         1.1534    -4.1484    91.8941 H          1           0.1236
     80 H33        -0.7986    -3.3280    90.6371 H          1           0.1282
     81 H34        -2.8324    -2.6320    91.8379 H          1           0.1279
     82 H35        -2.9146    -2.7571    94.2958 H          1           0.1253
     83 H36        -0.9656    -3.5854    95.5522 H          1           0.1121
     84 H37         1.9185    -5.8494    96.8052 H          1           0.1229
     85 H38         2.0913    -7.4530    96.0504 H          1           0.0930
     86 H39         4.3030    -6.3776    96.3786 H          1           0.1325
     87 H40         3.7731    -4.9880    95.4017 H          1           0.1343
     88 H41         7.2927    -5.1969    95.8347 H          1           0.1717
     89 H42         9.0391    -5.9915    98.1910 H          1           0.1379
     90 H43         9.6892    -7.9012    99.5746 H          1           0.1435
     91 H44         8.7488   -10.1302    99.1374 H          1           0.1492
     92 H45         7.1455   -10.4719    97.3108 H          1           0.1413
     93 H46        12.4311    -9.7193    86.3682 H          1           0.1267
@<TRIPOS>BOND
     1    1    2 1
     2    1   50 1
     3    1   51 1
     4    1   52 1
     5    2    3 1
     6    3   49 ar
     7    3    4 ar
     8    4    5 ar
     9    4   53 1
    10    5    6 ar
    11    5   54 1
    12    6   48 ar
    13    6    7 ar
    14    7    8 ar
    15    8    9 ar
    16    8   55 1
    17    9   10 ar
    18    9   56 1
    19   10   11 1
    20   10   48 ar
    21   11   12 1
    22   11   13 1
    23   11   57 1
    24   12   58 1
    25   13   14 1
    26   13   59 1
    27   13   60 1
    28   14   15 1
    29   14   20 1
    30   14   16 1
    31   16   17 1
    32   16   61 1
    33   16   62 1
    34   17   18 1
    35   17   63 1
    36   17   64 1
    37   18   19 1
    38   18   21 1
    39   18   65 1
    40   19   20 1
    41   19   66 1
    42   19   67 1
    43   20   68 1
    44   20   69 1
    45   21   22 am
    46   21   70 1
    47   22   23 2
    48   22   24 1
    49   24   25 1
    50   24   39 1
    51   24   71 1
    52   25   26 1
    53   25   38 1
    54   25   27 1
    55   27   28 1
    56   27   72 1
    57   27   73 1
    58   28   29 1
    59   28   74 1
    60   28   75 1
    61   29   30 1
    62   29   37 1
    63   29   76 1
    64   30   31 1
    65   30   77 1
    66   30   78 1
    67   31   36 ar
    68   31   32 ar
    69   32   33 ar
    70   32   79 1
    71   33   34 ar
    72   33   80 1
    73   34   35 ar
    74   34   81 1
    75   35   36 ar
    76   35   82 1
    77   36   83 1
    78   37   38 1
    79   37   84 1
    80   37   85 1
    81   38   86 1
    82   38   87 1
    83   39   47 1
    84   39   40 2
    85   40   41 1
    86   40   88 1
    87   41   46 ar
    88   41   42 ar
    89   42   43 ar
    90   42   89 1
    91   43   44 ar
    92   43   90 1
    93   44   45 ar
    94   44   91 1
    95   45   46 ar
    96   45   92 1
    97   46   47 1
    98   48   49 ar
    99   49   93 1
##########                 Name:              T538840
##########          Protonation:                   11
##########               SMILES:   c1ccc(cc1)CNc2[nH+]c(nc(n2)NCc3cccc4c3cccc4)NCCc5c[nH+]c[nH]5
##########            Long Name:   l-3-ium-5-yl)ethyl]-N4-(1-naphthylmethyl)-1,3,5-triazin-1-ium-2,4,6-triamine
##########          FlexRecCode: 1
##########               Number:                   76
##########   Ligand Source File: /raidb/db2/rgc/tcams/tcams-0001855.db2.gz
##########           GlobalRank: 4
##########                 Rank:                    1
##########               Setnum:                  199
##########             Matchnum:                 3040
##########                Cloud:                    1
##########        Electrostatic:           -51.373512
##########        Van der Waals:           -34.941383
##########  Ligand Polar Desolv:            17.673746
########## Ligand Apolar Desolv:            -6.446431
##########      Internal Energy:             0.000000
##########      Receptor Energy: 0.0
########## Receptor Desolvation:             0.000000
########## Receptor Hydrophobic:             0.000000
##########         Total Energy: -75.09
##########        Ligand Charge:             2.000000
##########            Arbitrary:    +999.9990
##########     heavy atom count:   34
##########           pose count:    1
##########        Ligand Energy:             0.000000
# num electro vdwattr vdwrepu polsolv apolsol rdesolv rhydroe totalscore fullpol fullapo
#   1   -1.17   -0.36    0.02    0.52   -0.07    0.00    0.00      -1.06    2.92   -0.37
#   2    1.66   -0.47    0.02   -0.71   -0.07    0.00    0.00       0.43   -2.69   -0.25
#   3   -1.02   -0.98    0.05    0.47   -0.25    0.00    0.00      -1.74    1.30   -0.70
#   4   -0.54   -1.18    0.14    0.02   -0.40    0.00    0.00      -1.96    0.05   -1.01
#   5   15.56   -2.93    1.73  -10.36    0.58    0.00    0.00       4.58  -20.46    1.15
#   6  -22.75   -0.19    0.09   10.36    0.30    0.00    0.00     -12.19   20.23    0.59
#   7   -9.07   -3.60    1.58    7.58   -1.80    0.00    0.00      -5.31   14.01   -3.33
#   8   13.47   -2.41    0.63  -10.32    0.55    0.00    0.00       1.93  -22.03    1.18
#   9    8.98   -0.43    0.01   -4.11    0.29    0.00    0.00       4.74  -24.47    1.73
#  10  -12.64   -0.53    0.03    4.68   -0.93    0.00    0.00      -9.39   24.19   -4.81
#  11    9.85   -0.67    0.04   -4.62    0.50    0.00    0.00       5.11  -19.54    2.12
#  12  -12.40   -1.39    0.50    4.88   -1.29    0.00    0.00      -9.69   18.15   -4.81
#  13    9.62   -2.43    1.73   -4.95    0.53    0.00    0.00       4.50  -16.11    1.74
#  14   -1.89   -0.73    0.06    1.49   -0.13    0.00    0.00      -1.19    4.34   -0.38
#  15    1.67   -1.42    0.16   -0.67   -0.16    0.00    0.00      -0.41   -1.58   -0.37
#  16    0.29   -1.65    0.40   -0.41   -0.17    0.00    0.00      -1.54   -0.97   -0.40
#  17    0.66   -1.62    0.27   -0.62   -0.18    0.00    0.00      -1.50   -1.50   -0.44
#  18    0.61   -1.95    0.34   -1.11   -0.25    0.00    0.00      -2.37   -2.07   -0.47
#  19    0.80   -2.58    0.69   -1.05   -0.29    0.00    0.00      -2.42   -1.72   -0.47
#  20    0.74   -2.74    1.24   -0.98   -0.27    0.00    0.00      -2.01   -1.69   -0.46
#  21    0.70   -2.33    1.28   -0.62   -0.21    0.00    0.00      -1.19   -1.18   -0.40
#  22    1.43   -3.19    1.49   -1.03   -0.27    0.00    0.00      -1.56   -1.77   -0.46
#  23    2.76   -2.96    0.76   -1.12   -0.28    0.00    0.00      -0.84   -1.85   -0.47
#  24    1.17   -1.99    0.34   -0.88   -0.24    0.00    0.00      -1.59   -1.65   -0.45
#  25   12.38   -2.40    1.99   -5.11    0.53    0.00    0.00       7.38  -18.88    1.96
#  26  -15.25   -0.89    0.14    5.40   -1.12    0.00    0.00     -11.72   23.17   -4.81
#  27   12.81   -0.70    0.06   -4.81    0.38    0.00    0.00       7.75  -21.82    1.74
#  28   -1.87   -0.51    0.09    1.01   -0.08    0.00    0.00      -1.36    5.02   -0.39
#  29    1.44   -0.40    0.01   -0.41   -0.06    0.00    0.00       0.59   -2.73   -0.37
#  30    0.38   -0.23    0.00   -0.20   -0.04    0.00    0.00      -0.08   -2.30   -0.45
#  31    0.27   -0.38    0.02   -0.53   -0.08    0.00    0.00      -0.70   -3.28   -0.47
#  32    0.34   -0.81    0.10   -0.68   -0.11    0.00    0.00      -1.17   -2.80   -0.47
#  33    1.59   -1.04    0.20   -1.00   -0.14    0.00    0.00      -0.39   -3.29   -0.47
#  34    1.31   -0.73    0.04   -0.65   -0.13    0.00    0.00      -0.15   -2.31   -0.45
#  35   13.53   -0.58    0.05   -4.14    0.19    0.00    0.00       9.05  -22.11    0.99
#  36   -8.20   -0.01    0.00    1.60    0.03    0.00    0.00      -6.57   20.21    0.36
#  37   -0.32   -0.22    0.08    0.93   -0.04    0.00    0.00       0.43    6.21   -0.27
#  38   -1.05   -0.08    0.00    0.49   -0.02    0.00    0.00      -0.66    6.68   -0.27
#  39   -3.25   -0.15    0.01    0.58   -0.04    0.00    0.00      -2.84    4.56   -0.28
#  40   -3.85   -0.20    0.02    1.11   -0.06    0.00    0.00      -2.98    5.19   -0.28
#  41   -5.12   -0.18    0.01    1.86   -0.05    0.00    0.00      -3.47   10.24   -0.28
#  42   -8.38   -1.41    1.29    9.28   -0.18    0.00    0.00       0.60   14.28   -0.28
#  43  -13.27   -0.06    0.00    7.80    0.22    0.00    0.00      -5.30   20.72    0.59
#  44   -4.62    0.00    0.00    0.92    0.03    0.00    0.00      -3.68   16.74    0.58
#  45   -6.66   -0.15    0.04    3.08    0.18    0.00    0.00      -3.52   10.00    0.58
#  46   -1.50   -0.17    0.01    0.37   -0.04    0.00    0.00      -1.33    2.26   -0.24
#  47   -0.44   -0.28    0.06    0.60   -0.06    0.00    0.00      -0.12    2.69   -0.27
#  48   -0.29   -0.30    0.04    0.98   -0.06    0.00    0.00       0.37    3.69   -0.23
#  49   -0.91   -0.54    0.29    1.21   -0.13    0.00    0.00      -0.07    2.63   -0.28
#  50   -0.99   -1.22    2.20    0.99   -0.17    0.00    0.00       0.80    1.60   -0.28
#  51   -0.89   -0.82    0.95    0.75   -0.17    0.00    0.00      -0.18    1.23   -0.28
#  52   -3.10   -1.23    1.48    0.79   -0.17    0.00    0.00      -2.23    1.32   -0.28
#  53   -3.44   -1.07    0.55    1.29   -0.17    0.00    0.00      -2.85    2.08   -0.28
#  54   -2.30   -0.47    0.15    1.39   -0.11    0.00    0.00      -1.34    3.51   -0.28
#  55   -9.35   -0.01    0.00    1.65    0.07    0.00    0.00      -7.64   13.31    0.58
#  56   -1.27   -0.47    0.32    1.55   -0.06    0.00    0.00       0.07    6.55   -0.27
#  57   -0.80   -0.10    0.01    0.60   -0.02    0.00    0.00      -0.31    6.59   -0.27
#  58   -0.46   -0.03    0.00    0.14   -0.01    0.00    0.00      -0.35    4.81   -0.28
#  59   -0.29   -0.07    0.00    0.14   -0.02    0.00    0.00      -0.24    1.91   -0.28
#  60   -0.39   -0.37    0.23    0.30   -0.07    0.00    0.00      -0.30    1.16   -0.28
#  61   -3.47   -0.64    0.88    0.59   -0.09    0.00    0.00      -2.72    1.90   -0.28
#  62   -2.19   -0.27    0.04    1.33   -0.08    0.00    0.00      -1.16    4.79   -0.28

@<TRIPOS>MOLECULE
          T538840        11
   62    66     0     0     0



@<TRIPOS>ATOM
      1 C1          3.0084    -7.1651    93.3451 C.3        1           0.0942
      2 C2          3.4487    -5.8403    93.9712 C.3        1          -0.0698
      3 C3          2.6033    -5.5530    95.1852 C.2        1           0.0435
      4 C4          1.3280    -5.9372    95.3847 C.2        1           0.0217
      5 N1          0.9406    -5.4825    96.5856 N.pl3      1          -0.4734
      6 H1          0.0652    -5.6170    96.9812 H          1           0.4726
      7 C5          1.9273    -4.8312    97.1380 C.cat      1           0.3248
      8 N2          2.9859    -4.8564    96.2997 N.pl3      1          -0.5107
      9 N3          3.8302    -7.4444    92.1649 N.pl3      1          -0.6739
     10 C6          5.1983    -7.5740    92.2916 C.ar       1           0.6963
     11 N4          5.7330    -7.8489    93.4774 N.ar       1          -0.6095
     12 C7          7.0507    -7.9737    93.5994 C.ar       1           0.6763
     13 N5          7.6058    -8.2595    94.8302 N.pl3      1          -0.6213
     14 C8          6.7428    -8.4254    96.0024 C.3        1           0.1632
     15 C9          7.5901    -8.7292    97.2111 C.ar       1          -0.1332
     16 C10         7.9013   -10.0599    97.5392 C.ar       1          -0.0309
     17 C11         7.4368   -11.1319    96.7580 C.ar       1          -0.1275
     18 C12         7.7585   -12.4076    97.1061 C.ar       1          -0.0964
     19 C13         8.5433   -12.6692    98.2278 C.ar       1          -0.1172
     20 C14         9.0103   -11.6565    99.0078 C.ar       1          -0.0920
     21 C15         8.6993   -10.3258    98.6797 C.ar       1          -0.0578
     22 C16         9.1646    -9.2538    99.4601 C.ar       1          -0.0725
     23 C17         8.8437    -7.9780    99.1115 C.ar       1          -0.1283
     24 C18         8.0626    -7.7162    97.9873 C.ar       1          -0.0684
     25 N6          7.8340    -7.8237    92.5357 N.ar       1          -0.6081
     26 C19         7.2994    -7.5489    91.3501 C.ar       1           0.6910
     27 N7          8.1124    -7.3933    90.2459 N.pl3      1          -0.6546
     28 C20         9.4707    -7.9422    90.2531 C.3        1           0.1438
     29 C21        10.1424    -7.6379    88.9389 C.ar       1          -0.1420
     30 C22        10.0322    -8.5255    87.8847 C.ar       1          -0.0919
     31 C23        10.6483    -8.2464    86.6791 C.ar       1          -0.1163
     32 C24        11.3744    -7.0799    86.5275 C.ar       1          -0.0872
     33 C25        11.4838    -6.1920    87.5815 C.ar       1          -0.1165
     34 C26        10.8641    -6.4689    88.7857 C.ar       1          -0.0922
     35 N8          5.9809    -7.4295    91.2271 N.ar       1          -0.6374
     36 H2          5.5905    -7.2328    90.3612 H          1           0.4315
     37 H3          3.1305    -7.9685    94.0714 H          1           0.0878
     38 H4          1.9610    -7.0975    93.0507 H          1           0.0946
     39 H5          4.4961    -5.9079    94.2656 H          1           0.1174
     40 H6          3.3265    -5.0368    93.2448 H          1           0.1329
     41 H7          0.7233    -6.5109    94.6980 H          1           0.2276
     42 H8          1.9029    -4.3544    98.1068 H          1           0.2716
     43 H9          3.8545    -4.4543    96.4571 H          1           0.4677
     44 H10         3.4127    -7.5384    91.2943 H          1           0.4478
     45 H11         8.5675    -8.3507    94.9191 H          1           0.4352
     46 H12         6.1818    -7.5066    96.1734 H          1           0.0996
     47 H13         6.0489    -9.2478    95.8291 H          1           0.1002
     48 H14         6.8275   -10.9443    95.8863 H          1           0.1192
     49 H15         7.3999   -13.2296    96.5043 H          1           0.1250
     50 H16         8.7840   -13.6909    98.4820 H          1           0.1298
     51 H17         9.6168   -11.8743    99.8746 H          1           0.1344
     52 H18         9.7735    -9.4413   100.3322 H          1           0.1361
     53 H19         9.2023    -7.1560    99.7133 H          1           0.1330
     54 H20         7.8257    -6.6942    97.7304 H          1           0.1281
     55 H21         7.7845    -6.9205    89.4649 H          1           0.4477
     56 H22        10.0405    -7.4909    91.0654 H          1           0.0896
     57 H23         9.4256    -9.0216    90.3969 H          1           0.0907
     58 H24         9.4650    -9.4368    88.0030 H          1           0.1261
     59 H25        10.5628    -8.9401    85.8557 H          1           0.1340
     60 H26        11.8564    -6.8623    85.5859 H          1           0.1346
     61 H27        12.0514    -5.2808    87.4632 H          1           0.1338
     62 H28        10.9466    -5.7735    89.6078 H          1           0.1256
@<TRIPOS>BOND
     1    1    2 1
     2    1    9 1
     3    1   37 1
     4    1   38 1
     5    2    3 1
     6    2   39 1
     7    2   40 1
     8    3    8 1
     9    3    4 2
    10    4    5 1
    11    4   41 1
    12    5    6 1
    13    5    7 2
    14    7    8 1
    15    7   42 1
    16    8   43 1
    17    9   10 1
    18    9   44 1
    19   10   35 ar
    20   10   11 ar
    21   11   12 ar
    22   12   13 1
    23   12   25 ar
    24   13   14 1
    25   13   45 1
    26   14   15 1
    27   14   46 1
    28   14   47 1
    29   15   24 ar
    30   15   16 ar
    31   16   21 ar
    32   16   17 ar
    33   17   18 ar
    34   17   48 1
    35   18   19 ar
    36   18   49 1
    37   19   20 ar
    38   19   50 1
    39   20   21 ar
    40   20   51 1
    41   21   22 ar
    42   22   23 ar
    43   22   52 1
    44   23   24 ar
    45   23   53 1
    46   24   54 1
    47   25   26 ar
    48   26   27 1
    49   26   35 ar
    50   27   28 1
    51   27   55 1
    52   28   29 1
    53   28   56 1
    54   28   57 1
    55   29   34 ar
    56   29   30 ar
    57   30   31 ar
    58   30   58 1
    59   31   32 ar
    60   31   59 1
    61   32   33 ar
    62   32   60 1
    63   33   34 ar
    64   33   61 1
    65   34   62 1
    66   35   36 1
##########                 Name:              T528577
##########          Protonation:                   96
##########               SMILES:   c(c(cc1[C@H]2C[C@@H]2C(=O)NCCCCC[NH+]3CC[C@H](C3)NC(=O)Nc4cc(cc(c4)F)F)Cl)Cl
##########            Long Name:   rophenyl)carbamoylamino]pyrrolidin-1-ium-1-yl]pentyl]cyclopropanecarboxamide
##########          FlexRecCode: 1
##########               Number:                   23
##########   Ligand Source File: /raidb/db2/rgc/tcams/tcams-0000525.db2.gz
##########           GlobalRank: 5
##########                 Rank:                    1
##########               Setnum:                  260
##########             Matchnum:                  398
##########                Cloud:                    1
##########        Electrostatic:           -50.347725
##########        Van der Waals:           -31.709312
##########  Ligand Polar Desolv:            10.197081
########## Ligand Apolar Desolv:            -3.177238
##########      Internal Energy:             0.000000
##########      Receptor Energy: 0.0
########## Receptor Desolvation:             0.000000
########## Receptor Hydrophobic:             0.000000
##########         Total Energy: -75.04
##########        Ligand Charge:             1.000000
##########            Arbitrary:    +999.9990
##########     heavy atom count:   36
##########           pose count:    1
##########        Ligand Energy:             0.000000
# num electro vdwattr vdwrepu polsolv apolsol rdesolv rhydroe totalscore fullpol fullapo
#   1    0.83   -1.30    0.28   -0.26   -0.29    0.00    0.00      -0.74   -0.44   -0.48
#   2   -1.28   -1.76    0.38    0.23   -0.18    0.00    0.00      -2.61    0.42   -0.34
#   3    1.84   -1.82    0.59   -0.57   -0.18    0.00    0.00      -0.14   -1.25   -0.40
#   4   -1.96   -1.44    0.20    0.99   -0.26    0.00    0.00      -2.46    2.60   -0.68
#   5    8.92   -1.30    0.10   -4.40    0.72    0.00    0.00       4.03  -10.43    1.70
#   6  -11.87   -1.18    0.12    3.91   -0.75    0.00    0.00      -9.76   10.91   -2.09
#   7    8.29   -0.97    0.11   -1.94    0.10    0.00    0.00       5.59   -6.44    0.33
#   8   17.24   -1.46    0.24   -6.73    0.91    0.00    0.00      10.19  -15.85    2.14
#   9   -5.47   -1.23    0.49    1.35   -0.14    0.00    0.00      -5.00    3.13   -0.33
#  10    6.64   -2.14    0.92   -2.36   -0.15    0.00    0.00       2.90   -4.27   -0.28
#  11    0.52   -1.66    0.36    0.16   -0.22    0.00    0.00      -0.84    0.32   -0.45
#  12   14.75   -1.53    0.66   -4.59    0.17    0.00    0.00       9.45  -12.46    0.45
#  13  -22.83   -0.08    0.01    5.67    0.18    0.00    0.00     -17.05   17.20    0.56
#  14    0.22   -0.66    0.07    0.09   -0.09    0.00    0.00      -0.38    0.30   -0.32
#  15    2.42   -0.38    0.02   -0.89   -0.04    0.00    0.00       1.13   -4.35   -0.21
#  16    2.27   -0.70    0.11   -0.78   -0.06    0.00    0.00       0.85   -2.91   -0.22
#  17    1.13   -0.27    0.01   -0.42   -0.04    0.00    0.00       0.42   -2.40   -0.22
#  18   -0.50   -0.42    0.03    0.31   -0.09    0.00    0.00      -0.67    1.45   -0.42
#  19   11.71   -0.93    0.12   -2.21    0.57    0.00    0.00       9.26   -8.94    2.32
#  20   -8.11   -0.42    0.02    0.69   -0.10    0.00    0.00      -7.93    4.37   -0.64
#  21    4.30   -0.16    0.00   -0.15    0.03    0.00    0.00       4.02   -1.88    0.38
#  22    3.69   -0.41    0.03   -0.34   -0.08    0.00    0.00       2.90   -1.65   -0.37
#  23    2.52   -0.45    0.04   -0.27   -0.09    0.00    0.00       1.75   -1.27   -0.41
#  24    0.92   -0.20    0.00   -0.12   -0.05    0.00    0.00       0.56   -0.93   -0.37
#  25    0.37   -0.38    0.01   -0.03   -0.06    0.00    0.00      -0.10   -0.20   -0.40
#  26    0.58   -0.40    0.01   -0.12   -0.07    0.00    0.00       0.00   -0.70   -0.42
#  27    0.08   -0.49    0.02   -0.06   -0.06    0.00    0.00      -0.50   -0.26   -0.30
#  28   -0.03   -1.52    0.42   -0.06   -0.21    0.00    0.00      -1.41   -0.26   -0.95
#  29    0.13   -0.96    0.19   -0.07   -0.07    0.00    0.00      -0.78   -0.28   -0.30
#  30    0.11   -2.56    1.09   -0.06   -0.27    0.00    0.00      -1.69   -0.20   -0.95
#  31    0.93   -1.64    0.65   -0.18   -0.14    0.00    0.00      -0.38   -0.58   -0.46
#  32    1.07   -0.72    0.05   -0.17   -0.12    0.00    0.00       0.10   -0.67   -0.46
#  33    0.54   -0.64    0.10    0.16   -0.12    0.00    0.00       0.04    0.59   -0.45
#  34    0.79   -1.53    0.26   -0.63   -0.17    0.00    0.00      -1.29   -1.75   -0.46
#  35   -0.63   -1.75    0.32    0.32   -0.14    0.00    0.00      -1.87    0.78   -0.34
#  36    0.30   -1.68    0.85   -0.31   -0.19    0.00    0.00      -1.04   -0.76   -0.48
#  37    1.45   -1.59    0.17   -0.64   -0.24    0.00    0.00      -0.85   -1.20   -0.46
#  38   -2.40   -0.37    0.06    0.35   -0.08    0.00    0.00      -2.43    0.91   -0.22
#  39   -6.17   -0.02    0.00    3.19    0.20    0.00    0.00      -2.80    9.22    0.59
#  40   -8.62   -0.05    0.00    3.92    0.19    0.00    0.00      -4.56   11.98    0.58
#  41   -5.92   -0.76    1.13    0.72   -0.10    0.00    0.00      -4.93    1.93   -0.26
#  42   -3.43   -1.27    2.31    1.31   -0.14    0.00    0.00      -1.22    2.60   -0.28
#  43   -6.33   -1.27    1.72    0.49   -0.16    0.00    0.00      -5.56    0.83   -0.28
#  44   -4.32   -0.46    0.10    1.98   -0.08    0.00    0.00      -2.79    5.25   -0.22
#  45   -5.88   -0.90    0.40    2.70   -0.16    0.00    0.00      -3.84    4.86   -0.28
#  46   -2.92   -0.13    0.00    0.67   -0.03    0.00    0.00      -2.41    5.68   -0.28
#  47   -3.07   -0.41    0.19    1.42   -0.08    0.00    0.00      -1.96    5.12   -0.28
#  48   -1.17   -0.07    0.00    0.20   -0.01    0.00    0.00      -1.06    3.15   -0.23
#  49   -0.91   -0.08    0.00    0.26   -0.02    0.00    0.00      -0.75    3.26   -0.28
#  50   -1.41   -0.54    0.44    0.49   -0.08    0.00    0.00      -1.11    1.64   -0.28
#  51   -2.63   -0.34    0.11    0.39   -0.07    0.00    0.00      -2.55    1.61   -0.28
#  52   -0.65   -0.04    0.00    0.08   -0.01    0.00    0.00      -0.62    1.81   -0.28
#  53   -0.29   -0.06    0.00    0.10   -0.02    0.00    0.00      -0.25    1.84   -0.28
#  54   -0.20   -0.06    0.00    0.02   -0.01    0.00    0.00      -0.25    0.41   -0.28
#  55   -0.21   -0.30    0.09    0.09   -0.06    0.00    0.00      -0.39    0.38   -0.28
#  56  -12.72   -0.04    0.00    1.97    0.16    0.00    0.00     -10.62    7.05    0.57
#  57   -3.54   -0.22    0.03    0.44   -0.06    0.00    0.00      -3.35    2.20   -0.28
#  58   -2.29   -0.30    0.08    0.44   -0.05    0.00    0.00      -2.12    1.82   -0.22
#  59   -1.69   -0.10    0.01    0.10   -0.03    0.00    0.00      -1.71    1.00   -0.28
#  60   -0.98   -0.03    0.00    0.02   -0.01    0.00    0.00      -1.00    0.58   -0.26
#  61   -0.80   -0.09    0.00    0.17   -0.02    0.00    0.00      -0.74    1.88   -0.21
#  62   -2.98   -1.00    1.18    0.43   -0.10    0.00    0.00      -2.48    1.15   -0.28
#  63   -2.44   -0.18    0.02    0.28   -0.06    0.00    0.00      -2.37    1.44   -0.28
#  64   -3.67   -0.14    0.01    0.75   -0.03    0.00    0.00      -3.08    6.22   -0.28
#  65   -2.75   -0.12    0.00    0.67   -0.03    0.00    0.00      -2.23    6.41   -0.26
#  66   -0.32   -0.33    0.10    0.67   -0.06    0.00    0.00       0.06    2.89   -0.28
#  67   -1.50   -0.37    0.04    0.34   -0.14    0.00    0.00      -1.63    0.70   -0.28

@<TRIPOS>MOLECULE
          T528577        96
   67    70     0     0     0



@<TRIPOS>ATOM
      1 F1          9.4258   -11.9568    98.8669 F          1          -0.1222
      2 C1          8.5932   -11.4288    97.9433 C.ar       1           0.1570
      3 C2          8.2694   -10.0846    97.9924 C.ar       1          -0.1692
      4 C3          7.4140    -9.5423    97.0428 C.ar       1           0.2150
      5 N1          7.0857    -8.1829    97.0905 N.am       1          -0.6750
      6 C4          6.8023    -7.5177    95.9531 C.2        1           0.7113
      7 O1          6.8317    -8.0989    94.8855 O.2        1          -0.5537
      8 N2          6.4859    -6.2085    95.9990 N.am       1          -0.7335
      9 C5          6.1779    -5.4855    94.7627 C.3        1           0.1512
     10 C6          5.8015    -4.0416    95.0720 C.3        1          -0.1588
     11 C7          4.3815    -3.8723    94.5201 C.3        1          -0.0133
     12 N3          4.2797    -4.9135    93.4678 N.4        1          -0.3871
     13 H1          4.7718    -4.6279    92.6345 H          1           0.4306
     14 C8          2.8732    -5.2089    93.1639 C.3        1          -0.0091
     15 C9          2.8009    -6.2839    92.0776 C.3        1          -0.1485
     16 C10         3.5006    -5.7796    90.8138 C.3        1          -0.1149
     17 C11         3.4284    -6.8546    89.7274 C.3        1          -0.1329
     18 C12         4.1280    -6.3504    88.4636 C.3        1           0.1176
     19 N4          5.5307    -6.0559    88.7665 N.am       1          -0.7315
     20 C13         6.4659    -7.0165    88.6292 C.2        1           0.5461
     21 O2          6.1462    -8.1249    88.2547 O.2        1          -0.5317
     22 C14         7.9089    -6.7136    88.9409 C.3        1          -0.1826
     23 C15         8.5523    -7.4649    90.1081 C.3        1          -0.1410
     24 C16         8.9365    -7.8140    88.6687 C.3        1          -0.0793
     25 C17        10.3009    -7.3891    88.1901 C.ar       1          -0.0426
     26 C18        11.4231    -7.7066    88.9324 C.ar       1          -0.1008
     27 C19        12.6754    -7.3169    88.4937 C.ar       1          -0.0281
     28 Cl1        14.0851    -7.7157    89.4250 Cl         1          -0.0429
     29 C20        12.8043    -6.6086    87.3105 C.ar       1          -0.0330
     30 Cl2        14.3755    -6.1192    86.7580 Cl         1          -0.0420
     31 C21        11.6806    -6.2920    86.5691 C.ar       1          -0.0935
     32 C22        10.4300    -6.6872    87.0065 C.ar       1          -0.0908
     33 C23         4.9412    -6.0817    94.0917 C.3        1          -0.0187
     34 C24         6.8851   -10.3506    96.0455 C.ar       1          -0.1914
     35 C25         7.2113   -11.6943    95.9997 C.ar       1           0.1592
     36 F2          6.6973   -12.4811    95.0292 F          1          -0.1213
     37 C26         8.0688   -12.2321    96.9447 C.ar       1          -0.2021
     38 H2          8.6816    -9.4576    98.7692 H          1           0.1537
     39 H3          7.0620    -7.7193    97.9422 H          1           0.4160
     40 H4          6.4623    -5.7448    96.8507 H          1           0.4073
     41 H5          7.0302    -5.5170    94.0838 H          1           0.1311
     42 H6          5.8129    -3.8692    96.1483 H          1           0.1030
     43 H7          6.4863    -3.3561    94.5729 H          1           0.1206
     44 H8          3.6438    -4.0468    95.3033 H          1           0.1366
     45 H9          4.2549    -2.8793    94.0889 H          1           0.1374
     46 H10         2.3747    -5.5681    94.0642 H          1           0.1328
     47 H11         2.3794    -4.3031    92.8122 H          1           0.1311
     48 H12         3.2946    -7.1897    92.4294 H          1           0.0887
     49 H13         1.7572    -6.5030    91.8522 H          1           0.0895
     50 H14         3.0070    -4.8738    90.4621 H          1           0.0792
     51 H15         4.5444    -5.5605    91.0393 H          1           0.0784
     52 H16         3.9220    -7.7605    90.0793 H          1           0.0747
     53 H17         2.3846    -7.0737    89.5021 H          1           0.0753
     54 H18         4.0764    -7.1162    87.6898 H          1           0.0699
     55 H19         3.6343    -5.4445    88.1119 H          1           0.0697
     56 H20         5.7865    -5.1694    89.0661 H          1           0.4032
     57 H21         8.2195    -5.6823    88.7732 H          1           0.1284
     58 H22         9.2864    -6.9281    90.7087 H          1           0.1128
     59 H23         7.9320    -8.1784    90.6504 H          1           0.1094
     60 H24         8.5689    -8.7572    88.2643 H          1           0.1346
     61 H25        11.3219    -8.2586    89.8551 H          1           0.1435
     62 H26        11.7803    -5.7394    85.6466 H          1           0.1468
     63 H27         9.5531    -6.4439    86.4250 H          1           0.1417
     64 H28         5.2307    -6.8083    93.3323 H          1           0.1462
     65 H29         4.2875    -6.5406    94.8335 H          1           0.1379
     66 H30         6.2193    -9.9307    95.3061 H          1           0.1484
     67 H31         8.3260   -13.2802    96.9050 H          1           0.1554
@<TRIPOS>BOND
     1    1    2 1
     2    2   37 ar
     3    2    3 ar
     4    3    4 ar
     5    3   38 1
     6    4    5 1
     7    4   34 ar
     8    5    6 am
     9    5   39 1
    10    6    7 2
    11    6    8 am
    12    8    9 1
    13    8   40 1
    14    9   33 1
    15    9   10 1
    16    9   41 1
    17   10   11 1
    18   10   42 1
    19   10   43 1
    20   11   12 1
    21   11   44 1
    22   11   45 1
    23   12   13 1
    24   12   14 1
    25   12   33 1
    26   14   15 1
    27   14   46 1
    28   14   47 1
    29   15   16 1
    30   15   48 1
    31   15   49 1
    32   16   17 1
    33   16   50 1
    34   16   51 1
    35   17   18 1
    36   17   52 1
    37   17   53 1
    38   18   19 1
    39   18   54 1
    40   18   55 1
    41   19   20 am
    42   19   56 1
    43   20   21 2
    44   20   22 1
    45   22   24 1
    46   22   23 1
    47   22   57 1
    48   23   24 1
    49   23   58 1
    50   23   59 1
    51   24   25 1
    52   24   60 1
    53   25   32 ar
    54   25   26 ar
    55   26   27 ar
    56   26   61 1
    57   27   28 1
    58   27   29 ar
    59   29   30 1
    60   29   31 ar
    61   31   32 ar
    62   31   62 1
    63   32   63 1
    64   33   64 1
    65   33   65 1
    66   34   35 ar
    67   34   66 1
    68   35   36 1
    69   35   37 ar
    70   37   67 1
##########                 Name:              T528248
##########          Protonation:                   44
##########               SMILES:   (C[C@H]([NH2+]1)C)c2nc([nH+]c(n2)NCc3ccccc3c4ccc(cc4)C(F)(F)F)NCCc5ccc(cc5)O
##########            Long Name:   ethyl)phenyl]phenyl]methylamino]-1,3,5-triazin-1-ium-2-yl]amino]ethyl]phenol
##########          FlexRecCode: 1
##########               Number:                   50
##########   Ligand Source File: /raidb/db2/rgc/tcams/tcams-0000496.db2.gz
##########           GlobalRank: 6
##########                 Rank:                    1
##########               Setnum:                  159
##########             Matchnum:                 1454
##########                Cloud:                    1
##########        Electrostatic:           -48.790230
##########        Van der Waals:           -28.018293
##########  Ligand Polar Desolv:             7.670798
########## Ligand Apolar Desolv:            -5.669499
##########      Internal Energy:             0.000000
##########      Receptor Energy: 0.0
########## Receptor Desolvation:             0.000000
########## Receptor Hydrophobic:             0.000000
##########         Total Energy: -74.81
##########        Ligand Charge:             2.000000
##########            Arbitrary:    +999.9990
##########     heavy atom count:   42
##########           pose count:    1
##########        Ligand Energy:             0.000000
# num electro vdwattr vdwrepu polsolv apolsol rdesolv rhydroe totalscore fullpol fullapo
#   1    2.11   -0.91    0.22   -2.13   -0.06    0.00    0.00      -0.77   -6.84   -0.19
#   2   -0.04   -0.39    0.03    0.42   -0.05    0.00    0.00      -0.03    2.07   -0.26
#   3   -0.56   -0.34    0.03    0.60   -0.08    0.00    0.00      -0.35    3.36   -0.43
#   4    4.07   -0.29    0.01   -2.40    0.17    0.00    0.00       1.55  -20.14    1.40
#   5   -0.45   -0.09    0.00    0.19   -0.03    0.00    0.00      -0.38    3.19   -0.44
#   6   -0.04   -0.11    0.00    0.17   -0.02    0.00    0.00       0.00    2.50   -0.35
#   7    0.66   -0.19    0.01   -0.75   -0.02    0.00    0.00      -0.29   -7.15   -0.18
#   8    2.20   -0.29    0.01   -2.98    0.09    0.00    0.00      -0.97  -21.23    0.63
#   9   -1.35   -0.01    0.00    2.10    0.06    0.00    0.00       0.80   21.51    0.57
#  10   -1.97    0.00    0.00    1.27    0.03    0.00    0.00      -0.67   21.97    0.56
#  11   -9.11   -0.42    0.03    3.62   -0.76    0.00    0.00      -6.64   22.40   -4.68
#  12   10.74   -0.73    0.08   -4.83    0.42    0.00    0.00       5.67  -21.38    1.84
#  13  -21.77   -1.56    0.81    6.48   -1.30    0.00    0.00     -17.34   24.03   -4.81
#  14   22.27   -1.78    1.01   -6.91    0.53    0.00    0.00      15.11  -22.65    1.73
#  15   -1.74   -0.64    0.05    0.99   -0.11    0.00    0.00      -1.44    3.26   -0.37
#  16    1.76   -0.86    0.13   -1.03   -0.09    0.00    0.00      -0.09   -2.51   -0.23
#  17    2.81   -1.41    0.21   -0.66   -0.14    0.00    0.00       0.81   -1.71   -0.36
#  18    1.70   -1.32    0.12   -0.83   -0.19    0.00    0.00      -0.52   -1.99   -0.46
#  19    3.34   -1.45    0.14   -1.36   -0.20    0.00    0.00       0.48   -3.05   -0.46
#  20   -3.26   -2.30    0.85    0.19   -0.14    0.00    0.00      -4.66    0.42   -0.31
#  21   12.75   -3.55    5.43   -3.06    0.58    0.00    0.00      12.16   -6.27    1.19
#  22    4.42   -3.20    1.78   -1.49   -0.22    0.00    0.00       1.29   -3.05   -0.46
#  23    3.01   -2.14    0.47   -0.91   -0.21    0.00    0.00       0.22   -1.96   -0.46
#  24   26.53   -4.10    9.10   -6.66    0.30    0.00    0.00      25.16  -22.06    0.99
#  25  -29.31   -0.47    0.61    6.35    0.13    0.00    0.00     -22.70   17.43    0.36
#  26  -19.25   -1.14    0.30    5.77   -1.17    0.00    0.00     -15.49   23.67   -4.81
#  27   18.40   -1.50    0.37   -6.15    0.48    0.00    0.00      11.60  -21.64    1.68
#  28   -2.02   -0.41    0.02    0.92   -0.07    0.00    0.00      -1.56    4.18   -0.33
#  29    1.73   -1.30    0.24   -0.66   -0.12    0.00    0.00      -0.11   -1.96   -0.37
#  30    0.39   -1.88    0.71   -0.76   -0.16    0.00    0.00      -1.69   -2.16   -0.45
#  31    0.48   -2.77    1.19   -1.40   -0.22    0.00    0.00      -2.72   -3.03   -0.47
#  32    1.18   -2.92    1.41   -1.53   -0.26    0.00    0.00      -2.13   -2.72   -0.47
#  33    2.83   -2.88    1.24   -1.40   -0.24    0.00    0.00      -0.43   -2.73   -0.46
#  34    1.02   -1.75    0.31   -0.36   -0.16    0.00    0.00      -0.94   -0.84   -0.38
#  35    0.61   -1.71    0.33   -0.03   -0.14    0.00    0.00      -0.93   -0.06   -0.33
#  36    3.57   -3.31    2.10   -1.10   -0.22    0.00    0.00       1.06   -2.34   -0.46
#  37    1.63   -3.28    1.83   -0.77   -0.21    0.00    0.00      -0.78   -1.64   -0.44
#  38    3.59   -1.73    0.59   -1.60   -0.15    0.00    0.00       0.70   -4.16   -0.38
#  39    1.04   -1.47    0.57   -0.54   -0.14    0.00    0.00      -0.55   -1.69   -0.44
#  40    2.88   -1.66    0.49   -0.91   -0.13    0.00    0.00       0.66   -2.57   -0.37
#  41   -5.63   -1.12    0.30    3.37   -0.03    0.00    0.00      -3.11    8.77   -0.07
#  42    1.80   -2.89    2.55   -1.65   -0.24    0.00    0.00      -0.43   -3.31   -0.48
#  43    0.53   -0.38    0.02   -0.94   -0.13    0.00    0.00      -0.90   -3.20   -0.45
#  44    1.74   -1.21    0.65   -1.12   -0.16    0.00    0.00      -0.10   -3.13   -0.45
#  45    9.98   -0.37    0.01   -3.27    0.29    0.00    0.00       6.64  -21.11    1.84
#  46   -0.97   -0.20    0.02    0.63   -0.06    0.00    0.00      -0.59    3.16   -0.28
#  47   -1.72   -0.39    0.14    0.59   -0.08    0.00    0.00      -1.45    2.18   -0.28
#  48   -1.05   -0.54    0.31    1.10   -0.08    0.00    0.00      -0.27    3.80   -0.28
#  49   -0.82   -0.20    0.08    0.69   -0.03    0.00    0.00      -0.28    5.37   -0.20
#  50   -0.35   -0.15    0.03    0.64   -0.03    0.00    0.00       0.14    5.61   -0.28
#  51   -0.99   -0.13    0.01    0.50   -0.03    0.00    0.00      -0.64    4.05   -0.24
#  52   -0.29   -0.02    0.00    0.15   -0.01    0.00    0.00      -0.16    6.15   -0.28
#  53   -0.84   -0.02    0.00    0.12   -0.01    0.00    0.00      -0.74    4.53   -0.24
#  54   -0.23   -0.02    0.00    0.20   -0.01    0.00    0.00      -0.05    9.35   -0.28
#  55   -0.11   -0.05    0.00    0.09   -0.01    0.00    0.00      -0.07    2.03   -0.20
#  56   -0.36   -0.03    0.00    0.11   -0.01    0.00    0.00      -0.30    3.01   -0.28
#  57   -0.61   -0.15    0.05    0.25   -0.03    0.00    0.00      -0.50    2.31   -0.28
#  58  -21.15   -0.06    0.01    4.18    0.15    0.00    0.00     -16.87   15.93    0.58
#  59   -1.08   -0.15    0.01    0.55   -0.03    0.00    0.00      -0.70    4.46   -0.27
#  60   -1.69   -0.32    0.09    0.94   -0.06    0.00    0.00      -1.03    4.53   -0.27
#  61   -1.48   -0.24    0.02    0.83   -0.07    0.00    0.00      -0.94    3.33   -0.28
#  62   -2.37   -0.41    0.17    1.31   -0.11    0.00    0.00      -1.42    3.28   -0.28
#  63   -1.40   -0.33    0.05    1.39   -0.09    0.00    0.00      -0.39    4.30   -0.28
#  64   -3.61   -0.35    0.06    0.62   -0.11    0.00    0.00      -3.38    1.56   -0.28
#  65  -12.71   -0.05    0.00    2.68    0.50    0.00    0.00      -9.56    6.50    1.22
#  66   -4.75   -1.39    2.84    0.79   -0.14    0.00    0.00      -2.65    1.55   -0.28
#  67   -5.15   -0.51    0.10    2.04   -0.13    0.00    0.00      -3.65    4.34   -0.28
#  68  -18.83   -0.06    0.00    4.86    0.20    0.00    0.00     -13.82   14.13    0.58
#  69   -1.56   -0.08    0.00    0.29   -0.01    0.00    0.00      -1.35    4.52   -0.17
#  70   -0.90   -0.06    0.00    0.35   -0.02    0.00    0.00      -0.63    5.72   -0.27
#  71   -0.47   -0.25    0.06    0.90   -0.05    0.00    0.00       0.18    4.94   -0.28
#  72   -0.50   -0.70    0.43    1.01   -0.12    0.00    0.00       0.11    2.29   -0.28
#  73   -1.49   -0.48    0.10    0.86   -0.15    0.00    0.00      -1.16    1.64   -0.28
#  74   -4.56   -0.87    0.93    1.01   -0.14    0.00    0.00      -3.64    2.02   -0.28
#  75   -5.88   -1.45    2.77    1.90   -0.15    0.00    0.00      -2.81    3.64   -0.28
#  76   -2.95   -1.62    3.27    1.53   -0.14    0.00    0.00       0.08    2.88   -0.27
#  77   -0.38   -0.18    0.02    0.62   -0.04    0.00    0.00       0.04    3.77   -0.27
#  78   -2.80   -0.37    0.09    1.67   -0.07    0.00    0.00      -1.48    5.56   -0.24

@<TRIPOS>MOLECULE
          T528248        44
   78    82     0     0     0



@<TRIPOS>ATOM
      1 C1          8.5922   -12.7956    93.2232 C.3        1          -0.1826
      2 C2          8.6275   -11.7559    92.1014 C.3        1           0.0062
      3 C3          7.3358   -10.9320    92.1276 C.3        1           0.0986
      4 N1          7.3342   -10.0305    90.9651 N.pl3      1          -0.5635
      5 C4          7.6090   -10.6072    89.6401 C.3        1           0.0970
      6 C5          8.8877   -11.4464    89.7313 C.3        1           0.0134
      7 C6         10.0772   -10.5325    90.0330 C.3        1          -0.1838
      8 N2          8.7464   -12.4369    90.8061 N.4        1          -0.5060
      9 H1          9.5568   -13.0380    90.8165 H          1           0.4381
     10 H2          7.9204   -12.9929    90.6427 H          1           0.4309
     11 C7          7.0814    -8.6818    91.1134 C.ar       1           0.6928
     12 N3          6.8347    -8.1804    92.3197 N.ar       1          -0.6220
     13 C8          6.5914    -6.8816    92.4626 C.ar       1           0.6995
     14 N4          6.3359    -6.3609    93.7150 N.pl3      1          -0.6486
     15 C9          6.3330    -7.2399    94.8869 C.3        1           0.0865
     16 C10         6.0253    -6.4179    96.1403 C.3        1          -0.0829
     17 C11         4.6729    -5.7689    95.9957 C.ar       1          -0.1178
     18 C12         3.5398    -6.4302    96.4321 C.ar       1          -0.0927
     19 C13         2.2989    -5.8374    96.3007 C.ar       1          -0.1425
     20 C14         2.1903    -4.5773    95.7307 C.ar       1           0.1242
     21 O1          0.9708    -3.9919    95.6007 O.3        1          -0.4957
     22 C15         3.3288    -3.9156    95.2940 C.ar       1          -0.1427
     23 C16         4.5679    -4.5107    95.4321 C.ar       1          -0.0929
     24 N5          6.5945    -6.0837    91.3992 N.ar       1          -0.6327
     25 H3          6.4168    -5.1359    91.5034 H          1           0.4410
     26 C17         6.8413    -6.5849    90.1931 C.ar       1           0.6992
     27 N6          6.8450    -5.7566    89.0892 N.pl3      1          -0.6409
     28 C18         7.1170    -6.3090    87.7598 C.3        1           0.1276
     29 C19         7.0624    -5.2045    86.7360 C.ar       1          -0.1206
     30 C20         5.8687    -4.8956    86.1153 C.ar       1          -0.0855
     31 C21         5.8170    -3.8823    85.1755 C.ar       1          -0.1062
     32 C22         6.9598    -3.1725    84.8527 C.ar       1          -0.0848
     33 C23         8.1583    -3.4724    85.4675 C.ar       1          -0.0972
     34 C24         8.2150    -4.4894    86.4186 C.ar       1          -0.0359
     35 C25         9.4999    -4.8132    87.0868 C.ar       1          -0.0196
     36 C26         9.8500    -4.1757    88.2754 C.ar       1          -0.1045
     37 C27        11.0460    -4.4809    88.8928 C.ar       1          -0.0609
     38 C28        11.8964    -5.4178    88.3339 C.ar       1          -0.1769
     39 C29        11.5542    -6.0532    87.1539 C.ar       1          -0.0684
     40 C30        10.3580    -5.7598    86.5309 C.ar       1          -0.1215
     41 C31        13.2010    -5.7469    89.0128 C.3        1           0.5062
     42 F1         13.3254    -4.9840    90.1789 F          1          -0.1831
     43 F2         13.2262    -7.1067    89.3402 F          1          -0.1707
     44 F3         14.2625    -5.4553    88.1493 F          1          -0.1697
     45 N7          7.0898    -7.8832    90.0507 N.ar       1          -0.6214
     46 H4          8.5039   -12.2900    94.1847 H          1           0.0942
     47 H5          7.7368   -13.4557    93.0800 H          1           0.1126
     48 H6          9.5109   -13.3820    93.2041 H          1           0.0890
     49 H7          9.4829   -11.0955    92.2447 H          1           0.1493
     50 H8          6.4750   -11.5987    92.0753 H          1           0.1131
     51 H9          7.2937   -10.3460    93.0456 H          1           0.1475
     52 H10         6.7758   -11.2412    89.3365 H          1           0.1135
     53 H11         7.7475    -9.8065    88.9136 H          1           0.1485
     54 H12         9.0544   -11.9591    88.7839 H          1           0.1654
     55 H13        10.9868   -11.1295    90.0979 H          1           0.0761
     56 H14        10.1816    -9.7969    89.2355 H          1           0.0919
     57 H15         9.9105   -10.0201    90.9804 H          1           0.1093
     58 H16         6.1582    -5.4130    93.8193 H          1           0.4469
     59 H17         5.5719    -8.0101    94.7618 H          1           0.0931
     60 H18         7.3112    -7.7093    94.9915 H          1           0.0926
     61 H19         6.0231    -7.0719    97.0122 H          1           0.0940
     62 H20         6.7863    -5.6477    96.2655 H          1           0.0943
     63 H21         3.6248    -7.4112    96.8758 H          1           0.1283
     64 H22         1.4141    -6.3548    96.6410 H          1           0.1355
     65 H23         0.2391    -4.5294    95.9335 H          1           0.3983
     66 H24         3.2469    -2.9347    94.8496 H          1           0.1353
     67 H25         5.4549    -3.9943    95.0961 H          1           0.1280
     68 H26         6.6674    -4.8087    89.1934 H          1           0.4461
     69 H27         8.1077    -6.7637    87.7511 H          1           0.0997
     70 H28         6.3686    -7.0641    87.5200 H          1           0.1011
     71 H29         4.9736    -5.4466    86.3635 H          1           0.1330
     72 H30         4.8812    -3.6444    84.6917 H          1           0.1381
     73 H31         6.9138    -2.3823    84.1178 H          1           0.1393
     74 H32         9.0499    -2.9179    85.2144 H          1           0.1362
     75 H33         9.1868    -3.4438    88.7124 H          1           0.1423
     76 H34        11.3184    -3.9871    89.8139 H          1           0.1431
     77 H35        12.2220    -6.7836    86.7217 H          1           0.1404
     78 H36        10.0896    -6.2598    85.6122 H          1           0.1374
@<TRIPOS>BOND
     1    1    2 1
     2    1   46 1
     3    1   47 1
     4    1   48 1
     5    2    8 1
     6    2    3 1
     7    2   49 1
     8    3    4 1
     9    3   50 1
    10    3   51 1
    11    4    5 1
    12    4   11 1
    13    5    6 1
    14    5   52 1
    15    5   53 1
    16    6    7 1
    17    6    8 1
    18    6   54 1
    19    7   55 1
    20    7   56 1
    21    7   57 1
    22    8    9 1
    23    8   10 1
    24   11   45 ar
    25   11   12 ar
    26   12   13 ar
    27   13   14 1
    28   13   24 ar
    29   14   15 1
    30   14   58 1
    31   15   16 1
    32   15   59 1
    33   15   60 1
    34   16   17 1
    35   16   61 1
    36   16   62 1
    37   17   23 ar
    38   17   18 ar
    39   18   19 ar
    40   18   63 1
    41   19   20 ar
    42   19   64 1
    43   20   21 1
    44   20   22 ar
    45   21   65 1
    46   22   23 ar
    47   22   66 1
    48   23   67 1
    49   24   25 1
    50   24   26 ar
    51   26   27 1
    52   26   45 ar
    53   27   28 1
    54   27   68 1
    55   28   29 1
    56   28   69 1
    57   28   70 1
    58   29   34 ar
    59   29   30 ar
    60   30   31 ar
    61   30   71 1
    62   31   32 ar
    63   31   72 1
    64   32   33 ar
    65   32   73 1
    66   33   34 ar
    67   33   74 1
    68   34   35 1
    69   35   40 ar
    70   35   36 ar
    71   36   37 ar
    72   36   75 1
    73   37   38 ar
    74   37   76 1
    75   38   39 ar
    76   38   41 1
    77   39   40 ar
    78   39   77 1
    79   40   78 1
    80   41   42 1
    81   41   43 1
    82   41   44 1
##########                 Name:              T531010
##########          Protonation:                   87
##########               SMILES:   Cc1cc2ccc(cc2[nH]c1=[NH2+])C[NH2+]CCc3ccccc3Br
##########            Long Name:   iumylidene-3-methyl-1H-quinolin-7-yl)methyl-[2-(2-bromophenyl)ethyl]ammonium
##########          FlexRecCode: 1
##########               Number:                  158
##########   Ligand Source File: /raidb/db2/rgc/tcams/tcams-0000767.db2.gz
##########           GlobalRank: 7
##########                 Rank:                    1
##########               Setnum:                    7
##########             Matchnum:                 2475
##########                Cloud:                    1
##########        Electrostatic:           -69.587013
##########        Van der Waals:           -23.886883
##########  Ligand Polar Desolv:            22.108795
########## Ligand Apolar Desolv:            -2.863005
##########      Internal Energy:             0.000000
##########      Receptor Energy: 0.0
########## Receptor Desolvation:             0.000000
########## Receptor Hydrophobic:             0.000000
##########         Total Energy: -74.23
##########        Ligand Charge:             2.000000
##########            Arbitrary:    +999.9990
##########     heavy atom count:   23
##########           pose count:    1
##########        Ligand Energy:             0.000000
# num electro vdwattr vdwrepu polsolv apolsol rdesolv rhydroe totalscore fullpol fullapo
#   1    2.78   -1.16    0.33   -1.36   -0.07    0.00    0.00       0.52   -3.92   -0.19
#   2    3.57   -0.91    0.07   -1.93   -0.14    0.00    0.00       0.66   -5.87   -0.42
#   3   -0.51   -0.52    0.02   -0.07   -0.09    0.00    0.00      -1.16   -0.32   -0.44
#   4    1.92   -0.68    0.06   -0.96   -0.09    0.00    0.00       0.26   -4.48   -0.40
#   5    0.69   -0.45    0.02   -0.59   -0.08    0.00    0.00      -0.41   -3.45   -0.46
#   6    1.98   -0.52    0.04   -0.77   -0.08    0.00    0.00       0.65   -4.36   -0.44
#   7    2.81   -1.20    0.36   -0.62   -0.09    0.00    0.00       1.25   -2.54   -0.37
#   8   -0.93   -0.61    0.09    0.58   -0.10    0.00    0.00      -0.97    2.41   -0.42
#   9   19.08   -1.65    1.20   -6.42    0.21    0.00    0.00      12.41  -22.38    0.73
#  10  -15.15   -0.02    0.00    3.55    0.09    0.00    0.00     -11.53   21.47    0.57
#  11  -25.24   -0.13    0.03    8.36    0.20    0.00    0.00     -16.78   23.65    0.57
#  12    0.27   -0.61    0.05    0.25   -0.11    0.00    0.00      -0.16    0.87   -0.40
#  13    3.35   -0.91    0.08   -1.81   -0.09    0.00    0.00       0.62   -4.43   -0.21
#  14    2.27   -1.23    0.12   -0.36   -0.13    0.00    0.00       0.67   -0.97   -0.36
#  15    3.38   -1.75    0.37   -1.15   -0.21    0.00    0.00       0.65   -2.51   -0.45
#  16    2.37   -1.80    0.40   -1.25   -0.21    0.00    0.00      -0.49   -2.80   -0.47
#  17    1.57   -1.39    0.21   -1.21   -0.20    0.00    0.00      -1.02   -2.89   -0.47
#  18    1.11   -1.49    0.18   -1.07   -0.19    0.00    0.00      -1.47   -2.59   -0.46
#  19    1.57   -1.21    0.10   -0.96   -0.11    0.00    0.00      -0.62   -2.53   -0.30
#  20    0.76   -4.25    1.04   -0.46   -0.49    0.00    0.00      -3.40   -0.95   -1.02
#  21    4.04   -3.01    2.36   -1.31   -0.15    0.00    0.00       1.92   -3.95   -0.45
#  22   -4.90   -1.84    0.64    1.60   -0.21    0.00    0.00      -4.70    5.22   -0.69
#  23   22.03   -3.14    2.34   -9.15    0.42    0.00    0.00      12.50  -22.88    1.04
#  24  -15.39   -1.43    0.18    8.25   -0.83    0.00    0.00      -9.21   20.67   -2.08
#  25   19.06   -2.39    1.08  -11.31    0.37    0.00    0.00       6.81  -26.05    0.85
#  26  -16.42   -0.10    0.02    6.56    0.20    0.00    0.00      -9.74   17.32    0.54
#  27   -9.96   -0.04    0.00    6.83    0.22    0.00    0.00      -2.95   18.47    0.60
#  28   -0.81   -0.16    0.01    0.51   -0.05    0.00    0.00      -0.49    2.79   -0.28
#  29   -2.55   -0.58    0.26    0.60   -0.10    0.00    0.00      -2.37    1.66   -0.28
#  30   -3.01   -1.09    1.70    1.04   -0.10    0.00    0.00      -1.47    2.77   -0.28
#  31   -1.92   -0.06    0.00    0.25   -0.02    0.00    0.00      -1.75    4.64   -0.28
#  32   -1.98   -0.05    0.00    0.21   -0.02    0.00    0.00      -1.84    3.80   -0.28
#  33   -2.24   -0.06    0.00    0.34   -0.02    0.00    0.00      -1.98    6.28   -0.28
#  34   -3.10   -0.22    0.03    1.98   -0.06    0.00    0.00      -1.37    9.16   -0.28
#  35   -2.24   -0.07    0.00    0.43   -0.02    0.00    0.00      -1.89    6.92   -0.28
#  36   -3.41   -0.25    0.04    1.78   -0.06    0.00    0.00      -1.90    7.87   -0.28
#  37   -2.50   -0.09    0.00    0.38   -0.02    0.00    0.00      -2.24    4.29   -0.27
#  38   -3.94   -0.45    0.07    1.53   -0.11    0.00    0.00      -2.90    3.47   -0.24
#  39   -2.78   -0.30    0.03    1.85   -0.08    0.00    0.00      -1.27    6.73   -0.28
#  40   -6.51   -0.76    1.04    2.79   -0.12    0.00    0.00      -3.57    6.43   -0.28
#  41   -3.77   -0.66    0.33    1.22   -0.13    0.00    0.00      -3.01    2.59   -0.28
#  42   -2.19   -0.25    0.02    0.35   -0.07    0.00    0.00      -2.15    1.34   -0.28
#  43   -1.19   -0.57    0.26    0.51   -0.11    0.00    0.00      -1.10    1.29   -0.28
#  44   -7.35   -1.39    2.51    4.07   -0.11    0.00    0.00      -2.27   10.06   -0.28
#  45  -24.22   -0.19    0.07    9.06    0.28    0.00    0.00     -15.01   19.05    0.59

@<TRIPOS>MOLECULE
          T531010        87
   45    47     0     0     0



@<TRIPOS>ATOM
      1 C1         10.4411    -5.9319    86.2378 C.3        1          -0.1256
      2 C2          9.2093    -5.8503    87.1023 C.2        1          -0.1623
      3 C3          9.0153    -6.7222    88.1220 C.2        1           0.0304
      4 C4          7.8007    -6.5975    88.9357 C.ar       1          -0.0912
      5 C5          7.4241    -7.6100    89.8234 C.ar       1          -0.0396
      6 C6          6.2798    -7.4659    90.5754 C.ar       1          -0.0999
      7 C7          5.4988    -6.3250    90.4590 C.ar       1          -0.1003
      8 C8          4.2505    -6.1860    91.2916 C.3        1           0.0374
      9 N1          4.5816    -5.5340    92.5657 N.4        1          -0.5083
     10 H1          5.2577    -6.0933    93.0639 H          1           0.4311
     11 H2          4.9690    -4.6200    92.3850 H          1           0.4273
     12 C9          3.3648    -5.3984    93.3774 C.3        1          -0.0101
     13 C10         3.7098    -4.7193    94.7042 C.3        1          -0.1094
     14 C11         4.7195    -5.5546    95.4484 C.ar       1          -0.0843
     15 C12         6.0714    -5.3375    95.2578 C.ar       1          -0.1026
     16 C13         6.9975    -6.1031    95.9407 C.ar       1          -0.0955
     17 C14         6.5724    -7.0865    96.8147 C.ar       1          -0.0936
     18 C15         5.2211    -7.3043    97.0059 C.ar       1          -0.0824
     19 C16         4.2938    -6.5346    96.3265 C.ar       1          -0.0875
     20 Br1         2.4446    -6.8273    96.5930 Br         1          -0.0433
     21 C17         5.8557    -5.3165    89.5876 C.ar       1          -0.1114
     22 C18         7.0050    -5.4430    88.8209 C.ar       1           0.1613
     23 N2          7.3903    -4.4459    87.9351 N.pl3      1          -0.6238
     24 C19         8.1877    -4.8186    86.8663 C.cat      1           0.5671
     25 N3          8.0329    -4.2727    85.6835 N.pl3      1          -0.7085
     26 H3          8.5980    -4.5481    84.9446 H          1           0.4557
     27 H4          7.3535    -3.5938    85.5477 H          1           0.4379
     28 H5         11.0671    -6.7583    86.5745 H          1           0.0989
     29 H6         10.1473    -6.0975    85.2013 H          1           0.1066
     30 H7         10.9998    -4.9990    86.3126 H          1           0.0825
     31 H8          9.7409    -7.4945    88.3314 H          1           0.1813
     32 H9          8.0274    -8.5007    89.9184 H          1           0.1635
     33 H10         5.9877    -8.2472    91.2614 H          1           0.1548
     34 H11         3.5201    -5.5819    90.7535 H          1           0.1481
     35 H12         3.8320    -7.1735    91.4869 H          1           0.1522
     36 H13         2.6345    -4.7943    92.8390 H          1           0.1404
     37 H14         2.9463    -6.3858    93.5725 H          1           0.1375
     38 H15         4.1282    -3.7319    94.5091 H          1           0.1035
     39 H16         2.8068    -4.6187    95.3064 H          1           0.1027
     40 H17         6.4039    -4.5696    94.5750 H          1           0.1344
     41 H18         8.0536    -5.9335    95.7913 H          1           0.1394
     42 H19         7.2965    -7.6848    97.3479 H          1           0.1428
     43 H20         4.8892    -8.0724    97.6886 H          1           0.1424
     44 H21         5.2425    -4.4315    89.5028 H          1           0.1534
     45 H22         7.1152    -3.5243    88.0611 H          1           0.4471
@<TRIPOS>BOND
     1    1    2 1
     2    1   28 1
     3    1   29 1
     4    1   30 1
     5    2   24 1
     6    2    3 2
     7    3    4 1
     8    3   31 1
     9    4   22 ar
    10    4    5 ar
    11    5    6 ar
    12    5   32 1
    13    6    7 ar
    14    6   33 1
    15    7    8 1
    16    7   21 ar
    17    8    9 1
    18    8   34 1
    19    8   35 1
    20    9   10 1
    21    9   11 1
    22    9   12 1
    23   12   13 1
    24   12   36 1
    25   12   37 1
    26   13   14 1
    27   13   38 1
    28   13   39 1
    29   14   19 ar
    30   14   15 ar
    31   15   16 ar
    32   15   40 1
    33   16   17 ar
    34   16   41 1
    35   17   18 ar
    36   17   42 1
    37   18   19 ar
    38   18   43 1
    39   19   20 1
    40   21   22 ar
    41   21   44 1
    42   22   23 1
    43   23   24 1
    44   23   45 1
    45   24   25 2
    46   25   26 1
    47   25   27 1
##########                 Name:              T537487
##########          Protonation:                   43
##########               SMILES:   COc1ccc(cc1)c2ccccc2CNc3[nH+]c(nc(n3)N4CC[NH2+]CC4)NCCc5ccc(cc5)O
##########            Long Name:   hylamino]-4-piperazin-4-ium-1-yl-1,3,5-triazin-1-ium-2-yl]amino]ethyl]phenol
##########          FlexRecCode: 1
##########               Number:                   85
##########   Ligand Source File: /raidb/db2/rgc/tcams/tcams-0001719.db2.gz
##########           GlobalRank: 8
##########                 Rank:                    1
##########               Setnum:                  316
##########             Matchnum:                 2667
##########                Cloud:                    1
##########        Electrostatic:           -68.334259
##########        Van der Waals:           -24.995092
##########  Ligand Polar Desolv:            23.161928
########## Ligand Apolar Desolv:            -3.954385
##########      Internal Energy:             0.000000
##########      Receptor Energy: 0.0
########## Receptor Desolvation:             0.000000
########## Receptor Hydrophobic:             0.000000
##########         Total Energy: -74.12
##########        Ligand Charge:             2.000000
##########            Arbitrary:    +999.9990
##########     heavy atom count:   38
##########           pose count:    1
##########        Ligand Energy:             0.000000
# num electro vdwattr vdwrepu polsolv apolsol rdesolv rhydroe totalscore fullpol fullapo
#   1   -0.03   -0.29    0.02    0.06    0.01    0.00    0.00      -0.24    0.31    0.03
#   2    0.45   -0.76    0.07   -1.90    0.28    0.00    0.00      -1.87   -6.43    0.93
#   3   -0.33   -1.17    0.32    0.52   -0.09    0.00    0.00      -0.75    1.83   -0.31
#   4    1.20   -1.88    1.02   -1.68   -0.17    0.00    0.00      -1.52   -4.28   -0.43
#   5    0.33   -1.90    1.41   -0.50   -0.16    0.00    0.00      -0.83   -1.39   -0.46
#   6    0.68   -1.18    0.50   -0.42   -0.08    0.00    0.00      -0.50   -1.80   -0.33
#   7    0.54   -0.81    0.18   -0.26   -0.07    0.00    0.00      -0.41   -1.35   -0.37
#   8    0.43   -0.81    0.18   -0.67   -0.09    0.00    0.00      -0.96   -3.52   -0.46
#   9    0.25   -0.85    0.06   -0.13   -0.11    0.00    0.00      -0.78   -0.45   -0.38
#  10    1.19   -1.06    0.11   -0.88   -0.15    0.00    0.00      -0.80   -2.64   -0.46
#  11    1.38   -1.27    0.13   -0.97   -0.18    0.00    0.00      -0.92   -2.47   -0.47
#  12    2.47   -2.39    1.65   -1.36   -0.22    0.00    0.00       0.16   -2.92   -0.47
#  13    2.44   -2.55    1.62   -0.96   -0.22    0.00    0.00       0.33   -2.00   -0.45
#  14    3.43   -1.15    0.10   -0.72   -0.13    0.00    0.00       1.54   -2.03   -0.37
#  15   -4.09   -0.89    0.08    1.67   -0.13    0.00    0.00      -3.37    4.12   -0.33
#  16   27.53   -2.76    1.82   -8.34    0.68    0.00    0.00      18.93  -20.56    1.68
#  17  -22.23   -1.96    0.70    7.47   -1.58    0.00    0.00     -17.60   22.73   -4.81
#  18   21.27   -2.58    1.38   -7.26    0.34    0.00    0.00      13.14  -21.31    0.99
#  19  -21.39   -0.08    0.01    5.68    0.12    0.00    0.00     -15.67   16.64    0.36
#  20   -9.74   -1.64    0.69    7.00   -1.44    0.00    0.00      -5.14   23.31   -4.81
#  21    2.21   -1.35    0.28   -6.40    0.50    0.00    0.00      -4.76  -22.08    1.73
#  22   -0.89   -0.78    0.16    0.85   -0.10    0.00    0.00      -0.76    3.19   -0.37
#  23    0.34   -0.33    0.02   -0.42   -0.04    0.00    0.00      -0.43   -2.41   -0.23
#  24    1.06   -0.49    0.03   -0.30   -0.06    0.00    0.00       0.23   -1.67   -0.36
#  25    0.80   -0.26    0.01   -0.20   -0.05    0.00    0.00       0.30   -1.93   -0.46
#  26    1.05   -0.29    0.01   -0.32   -0.05    0.00    0.00       0.40   -2.95   -0.46
#  27   -1.14   -0.64    0.08    0.08   -0.06    0.00    0.00      -1.68    0.39   -0.31
#  28    1.26   -0.47    0.02   -1.28    0.25    0.00    0.00      -0.21   -6.00    1.19
#  29    2.78   -1.51    0.56   -0.92   -0.14    0.00    0.00       0.76   -2.95   -0.46
#  30    1.15   -1.14    0.25   -0.55   -0.13    0.00    0.00      -0.42   -1.91   -0.46
#  31    3.10   -1.53    1.11   -5.20    0.46    0.00    0.00      -2.06  -20.98    1.84
#  32   -6.99   -1.30    0.67    5.13   -1.10    0.00    0.00      -3.58   21.85   -4.68
#  33   12.27   -1.22    0.26   -5.90    0.53    0.00    0.00       5.93  -20.58    1.84
#  34    5.83   -0.81    0.09   -5.13    0.43    0.00    0.00       0.41  -20.26    1.71
#  35   -1.88   -0.69    0.10    0.94   -0.16    0.00    0.00      -1.69    2.87   -0.48
#  36    0.52   -1.11    0.40    0.15   -0.21    0.00    0.00      -0.24    0.35   -0.48
#  37   11.63   -3.22    7.19   -9.02    0.36    0.00    0.00       6.93  -22.56    0.89
#  38  -15.78   -0.41    0.60    8.25    0.21    0.00    0.00      -7.14   22.45    0.56
#  39  -10.52   -0.05    0.00    8.82    0.22    0.00    0.00      -1.53   23.23    0.57
#  40    0.22   -1.53    1.33    0.14   -0.18    0.00    0.00      -0.03    0.37   -0.48
#  41   -0.47   -0.53    0.05    0.78   -0.13    0.00    0.00      -0.31    2.80   -0.48
#  42   -0.14   -0.07    0.00    0.18   -0.02    0.00    0.00      -0.05    2.21   -0.28
#  43   -0.09   -0.05    0.00    0.04   -0.01    0.00    0.00      -0.11    0.81   -0.27
#  44   -0.03   -0.10    0.01    0.29   -0.03    0.00    0.00       0.13    2.46   -0.27
#  45   -1.80   -0.42    0.09    1.28   -0.09    0.00    0.00      -0.95    3.03   -0.22
#  46   -1.36   -0.34    0.06    0.95   -0.09    0.00    0.00      -0.78    2.96   -0.28
#  47   -1.73   -0.09    0.00    0.40   -0.02    0.00    0.00      -1.44    4.57   -0.25
#  48   -0.29   -0.08    0.00    0.24   -0.02    0.00    0.00      -0.15    2.88   -0.28
#  49   -0.45   -0.34    0.13    0.40   -0.07    0.00    0.00      -0.34    1.65   -0.28
#  50   -2.01   -0.25    0.02    0.36   -0.07    0.00    0.00      -1.95    1.49   -0.28
#  51   -2.87   -0.75    0.82    1.02   -0.13    0.00    0.00      -1.92    2.17   -0.28
#  52   -4.25   -0.96    1.11    2.40   -0.14    0.00    0.00      -1.83    4.69   -0.28
#  53   -2.47   -0.16    0.00    0.83   -0.04    0.00    0.00      -1.84    5.39   -0.26
#  54   -3.38   -0.50    0.11    1.72   -0.08    0.00    0.00      -2.13    3.98   -0.18
#  55  -28.70   -0.19    0.09    5.36    0.23    0.00    0.00     -23.21   13.27    0.58
#  56   -1.11   -0.02    0.00    3.39    0.13    0.00    0.00       2.39   15.61    0.58
#  57   -2.49   -0.74    1.02    1.30   -0.08    0.00    0.00      -1.00    4.25   -0.27
#  58   -1.96   -0.14    0.01    0.60   -0.04    0.00    0.00      -1.53    4.24   -0.27
#  59   -0.33   -0.04    0.00    0.14   -0.01    0.00    0.00      -0.25    3.29   -0.28
#  60   -0.31   -0.14    0.01    0.41   -0.04    0.00    0.00      -0.06    3.25   -0.28
#  61   -0.94   -0.03    0.00    0.13   -0.01    0.00    0.00      -0.85    4.20   -0.28
#  62   -0.64   -0.03    0.00    0.05   -0.01    0.00    0.00      -0.63    1.51   -0.28
#  63   -2.44   -0.02    0.00    1.47    0.28    0.00    0.00      -0.70    6.29    1.22
#  64   -4.08   -0.53    0.25    0.51   -0.09    0.00    0.00      -3.94    1.51   -0.28
#  65   -1.19   -0.27    0.05    0.99   -0.07    0.00    0.00      -0.49    4.21   -0.28
#  66   -2.50   -0.30    0.11    1.29   -0.07    0.00    0.00      -1.46    5.32   -0.28
#  67   -3.33   -0.17    0.01    0.79   -0.05    0.00    0.00      -2.76    4.05   -0.24
#  68   -4.07   -0.44    0.17    2.99   -0.10    0.00    0.00      -1.45    8.46   -0.28
#  69   -3.05   -0.25    0.01    1.57   -0.08    0.00    0.00      -1.79    5.57   -0.28
#  70   -0.83   -0.72    1.27    3.07   -0.10    0.00    0.00       2.69    8.36   -0.28
#  71   -1.19   -0.82    1.27    1.89   -0.10    0.00    0.00       1.06    5.52   -0.28
#  72   -0.21   -0.13    0.01    0.52   -0.03    0.00    0.00       0.15    3.70   -0.24
#  73   -0.38   -0.14    0.01    0.77   -0.04    0.00    0.00       0.22    5.23   -0.28

@<TRIPOS>MOLECULE
          T537487        43
   73    77     0     0     0



@<TRIPOS>ATOM
      1 C1          0.4978    -9.5466    91.2805 C.3        1           0.0251
      2 O1          0.3543    -9.2559    92.6721 O.3        1          -0.3145
      3 C2          1.4370    -8.7377    93.3089 C.ar       1           0.1377
      4 C3          1.3668    -8.4380    94.6627 C.ar       1          -0.2035
      5 C4          2.4639    -7.9119    95.3118 C.ar       1          -0.0597
      6 C5          3.6445    -7.6817    94.6074 C.ar       1          -0.0989
      7 C6          3.7121    -7.9842    93.2485 C.ar       1          -0.0763
      8 C7          2.6132    -8.5146    92.6059 C.ar       1          -0.1527
      9 C8          4.8264    -7.1154    95.3026 C.ar       1          -0.0157
     10 C9          5.7631    -7.9623    95.8924 C.ar       1          -0.1046
     11 C10         6.8609    -7.4302    96.5373 C.ar       1          -0.0847
     12 C11         7.0326    -6.0588    96.5991 C.ar       1          -0.1137
     13 C12         6.1059    -5.2138    96.0159 C.ar       1          -0.0859
     14 C13         5.0071    -5.7352    95.3633 C.ar       1          -0.1282
     15 C14         4.0018    -4.8134    94.7225 C.3        1           0.1301
     16 N1          4.3908    -4.5564    93.3337 N.pl3      1          -0.6358
     17 C15         3.5404    -4.9028    92.3034 C.ar       1           0.6986
     18 N2          4.0161    -5.0546    91.0712 N.ar       1          -0.6321
     19 H1          4.9609    -4.9219    90.8963 H          1           0.4415
     20 C16         3.1970    -5.3887    90.0791 C.ar       1           0.7004
     21 N3          3.6910    -5.5469    88.8001 N.pl3      1          -0.6486
     22 C17         5.1216    -5.7835    88.5914 C.3        1           0.0861
     23 C18         5.3205    -6.6259    87.3298 C.3        1          -0.0827
     24 C19         6.7921    -6.8693    87.1150 C.ar       1          -0.1178
     25 C20         7.3965    -7.9805    87.6732 C.ar       1          -0.0928
     26 C21         8.7453    -8.2058    87.4779 C.ar       1          -0.1426
     27 C22         9.4935    -7.3164    86.7205 C.ar       1           0.1241
     28 O2         10.8204    -7.5361    86.5265 O.3        1          -0.4959
     29 C23         8.8846    -6.2024    86.1612 C.ar       1          -0.1426
     30 C24         7.5345    -5.9840    86.3554 C.ar       1          -0.0927
     31 N4          1.9021    -5.5711    90.3189 N.ar       1          -0.6245
     32 C25         1.4265    -5.4189    91.5507 C.ar       1           0.6923
     33 N5          2.2466    -5.0900    92.5442 N.ar       1          -0.6230
     34 N6          0.0822    -5.6077    91.7996 N.pl3      1          -0.5684
     35 C26        -0.4673    -5.4386    93.1537 C.3        1           0.0923
     36 C27        -1.6843    -4.5111    93.0717 C.3        1          -0.0218
     37 N7         -2.6395    -5.0439    92.0920 N.4        1          -0.5087
     38 H2         -2.8816    -5.9913    92.3410 H          1           0.4334
     39 H3         -3.4723    -4.4742    92.0918 H          1           0.4424
     40 C28        -2.0410    -5.0300    90.7512 C.3        1          -0.0216
     41 C29        -0.8428    -5.9777    90.7172 C.3        1           0.0915
     42 H4         -0.4374    -9.9538    90.8961 H          1           0.1071
     43 H5          0.7443    -8.6318    90.7417 H          1           0.0631
     44 H6          1.2958   -10.2761    91.1420 H          1           0.0528
     45 H7          0.4518    -8.6165    95.2080 H          1           0.1341
     46 H8          2.4085    -7.6783    96.3647 H          1           0.1309
     47 H9          4.6254    -7.8066    92.7001 H          1           0.1306
     48 H10         2.6662    -8.7525    91.5539 H          1           0.1345
     49 H11         5.6299    -9.0330    95.8451 H          1           0.1335
     50 H12         7.5872    -8.0854    96.9950 H          1           0.1365
     51 H13         7.8932    -5.6466    97.1048 H          1           0.1355
     52 H14         6.2448    -4.1440    96.0674 H          1           0.1301
     53 H15         3.0165    -5.2793    94.7435 H          1           0.0981
     54 H16         3.9704    -3.8722    95.2712 H          1           0.1007
     55 H17         5.2461    -4.1426    93.1382 H          1           0.4460
     56 H18         3.0909    -5.5013    88.0394 H          1           0.4466
     57 H19         5.6346    -4.8289    88.4755 H          1           0.0932
     58 H20         5.5312    -6.3141    89.4509 H          1           0.0933
     59 H21         4.8075    -7.5805    87.4457 H          1           0.0938
     60 H22         4.9108    -6.0952    86.4704 H          1           0.0941
     61 H23         6.8136    -8.6727    88.2628 H          1           0.1283
     62 H24         9.2171    -9.0737    87.9148 H          1           0.1354
     63 H25        11.2557    -6.8627    85.9861 H          1           0.3983
     64 H26         9.4650    -5.5082    85.5714 H          1           0.1353
     65 H27         7.0592    -5.1192    85.9166 H          1           0.1281
     66 H28        -0.7716    -6.4077    93.5491 H          1           0.1130
     67 H29         0.2877    -4.9954    93.8029 H          1           0.1481
     68 H30        -2.1621    -4.4509    94.0495 H          1           0.1583
     69 H31        -1.3630    -3.5166    92.7621 H          1           0.1385
     70 H32        -2.7817    -5.3521    90.0192 H          1           0.1582
     71 H33        -1.7090    -4.0198    90.5119 H          1           0.1379
     72 H34        -0.3356    -5.8908    89.7563 H          1           0.1479
     73 H35        -1.1855    -7.0022    90.8624 H          1           0.1126
@<TRIPOS>BOND
     1    1    2 1
     2    1   42 1
     3    1   43 1
     4    1   44 1
     5    2    3 1
     6    3    8 ar
     7    3    4 ar
     8    4    5 ar
     9    4   45 1
    10    5    6 ar
    11    5   46 1
    12    6    7 ar
    13    6    9 1
    14    7    8 ar
    15    7   47 1
    16    8   48 1
    17    9   14 ar
    18    9   10 ar
    19   10   11 ar
    20   10   49 1
    21   11   12 ar
    22   11   50 1
    23   12   13 ar
    24   12   51 1
    25   13   14 ar
    26   13   52 1
    27   14   15 1
    28   15   16 1
    29   15   53 1
    30   15   54 1
    31   16   17 1
    32   16   55 1
    33   17   33 ar
    34   17   18 ar
    35   18   19 1
    36   18   20 ar
    37   20   21 1
    38   20   31 ar
    39   21   22 1
    40   21   56 1
    41   22   23 1
    42   22   57 1
    43   22   58 1
    44   23   24 1
    45   23   59 1
    46   23   60 1
    47   24   30 ar
    48   24   25 ar
    49   25   26 ar
    50   25   61 1
    51   26   27 ar
    52   26   62 1
    53   27   28 1
    54   27   29 ar
    55   28   63 1
    56   29   30 ar
    57   29   64 1
    58   30   65 1
    59   31   32 ar
    60   32   33 ar
    61   32   34 1
    62   34   41 1
    63   34   35 1
    64   35   36 1
    65   35   66 1
    66   35   67 1
    67   36   37 1
    68   36   68 1
    69   36   69 1
    70   37   38 1
    71   37   39 1
    72   37   40 1
    73   40   41 1
    74   40   70 1
    75   40   71 1
    76   41   72 1
    77   41   73 1
##########                 Name:              T529894
##########          Protonation:                   21
##########               SMILES:   COc1ccc2c(n1)c(c(cn2)F)CC[NH+]3C[C@H]([C@H](C3)O)C[NH2+]Cc4ccc5ccccc5c4
##########            Long Name:   -yl)ethyl]-4-hydroxy-pyrrolidin-1-ium-3-yl]methyl-(2-naphthylmethyl)ammonium
##########          FlexRecCode: 1
##########               Number:                  292
##########   Ligand Source File: /raidb/db2/rgc/tcams/tcams-0000725.db2.gz
##########           GlobalRank: 9
##########                 Rank:                    1
##########               Setnum:                  240
##########             Matchnum:                 3437
##########                Cloud:                    1
##########        Electrostatic:           -51.445236
##########        Van der Waals:           -28.342016
##########  Ligand Polar Desolv:            10.075853
########## Ligand Apolar Desolv:            -3.559434
##########      Internal Energy:             0.000000
##########      Receptor Energy: 0.0
########## Receptor Desolvation:             0.000000
########## Receptor Hydrophobic:             0.000000
##########         Total Energy: -73.27
##########        Ligand Charge:             2.000000
##########            Arbitrary:    +999.9990
##########     heavy atom count:   34
##########           pose count:    1
##########        Ligand Energy:             0.000000
# num electro vdwattr vdwrepu polsolv apolsol rdesolv rhydroe totalscore fullpol fullapo
#   1   -0.06   -0.10    0.00    0.03    0.00    0.00    0.00      -0.13    0.42    0.03
#   2    0.49   -0.24    0.00   -0.88    0.11    0.00    0.00      -0.52   -7.40    0.90
#   3   -0.88   -0.52    0.03    1.40   -0.13    0.00    0.00      -0.10    7.32   -0.66
#   4    0.38   -1.08    0.12   -1.09   -0.16    0.00    0.00      -1.84   -3.20   -0.46
#   5   -0.03   -1.88    0.54   -0.35   -0.20    0.00    0.00      -1.91   -0.82   -0.48
#   6   -0.17   -1.54    0.30   -0.13   -0.26    0.00    0.00      -1.80   -0.36   -0.73
#   7    3.98   -2.66    1.17   -3.45    0.89    0.00    0.00      -0.07   -7.78    2.00
#   8   -2.60   -2.38    1.01    0.52   -0.42    0.00    0.00      -3.86    1.22   -0.97
#   9   -2.19   -1.07    0.10    0.62   -0.12    0.00    0.00      -2.65    1.80   -0.34
#  10    2.99   -0.51    0.03   -0.92   -0.16    0.00    0.00       1.44   -2.65   -0.45
#  11    1.01   -0.74    0.09   -0.15   -0.08    0.00    0.00       0.14   -0.65   -0.36
#  12    0.74   -0.23    0.01   -0.49   -0.03    0.00    0.00       0.01   -3.87   -0.22
#  13   -0.01   -0.15    0.00    0.13   -0.03    0.00    0.00      -0.06    1.38   -0.35
#  14    8.15   -0.51    0.05   -3.62    0.09    0.00    0.00       4.15  -17.71    0.42
#  15  -11.22   -0.01    0.00    4.06    0.10    0.00    0.00      -7.08   23.35    0.56
#  16    0.80   -0.52    0.06   -0.61   -0.09    0.00    0.00      -0.35   -2.67   -0.38
#  17   -1.36   -1.00    0.49    1.07   -0.04    0.00    0.00      -0.84    4.46   -0.18
#  18    5.83   -0.41    0.04   -4.27    0.18    0.00    0.00       1.38  -28.19    1.22
#  19    4.02   -1.11    0.44   -1.70   -0.06    0.00    0.00       1.60   -6.09   -0.21
#  20   -0.24   -0.61    0.09    0.10   -0.08    0.00    0.00      -0.74    0.41   -0.33
#  21   14.84   -0.95    0.27   -6.72    0.20    0.00    0.00       7.63  -24.51    0.73
#  22  -16.14   -0.03    0.00    5.89    0.10    0.00    0.00     -10.17   21.96    0.39
#  23  -14.88   -0.02    0.00    3.85    0.09    0.00    0.00     -10.96   23.27    0.57
#  24   -0.85   -0.51    0.03    0.94   -0.11    0.00    0.00      -0.51    3.47   -0.42
#  25    2.15   -1.00    0.07   -1.19   -0.12    0.00    0.00      -0.09   -3.54   -0.37
#  26    1.92   -1.39    0.19   -0.87   -0.19    0.00    0.00      -0.33   -2.03   -0.45
#  27    1.25   -1.63    0.18   -2.10   -0.23    0.00    0.00      -2.53   -4.20   -0.46
#  28    0.38   -1.56    0.26   -0.77   -0.18    0.00    0.00      -1.87   -1.72   -0.40
#  29    1.42   -1.96    0.64   -1.18   -0.23    0.00    0.00      -1.31   -2.35   -0.46
#  30    0.78   -1.81    0.39   -1.21   -0.25    0.00    0.00      -2.10   -2.25   -0.47
#  31    0.72   -1.49    0.14   -1.51   -0.25    0.00    0.00      -2.38   -2.85   -0.47
#  32    0.52   -1.47    0.18   -0.78   -0.18    0.00    0.00      -1.73   -1.94   -0.46
#  33    0.41   -1.38    0.17   -0.82   -0.14    0.00    0.00      -1.77   -2.27   -0.40
#  34    0.33   -1.40    0.34   -0.75   -0.14    0.00    0.00      -1.62   -2.29   -0.44
#  35   -0.17   -0.61    0.13    0.04   -0.10    0.00    0.00      -0.71    0.19   -0.43
#  36   -0.60   -0.92    0.16    0.70   -0.17    0.00    0.00      -0.82    3.03   -0.73
#  37    1.58   -0.54    0.06   -1.88    0.41    0.00    0.00      -0.37  -11.55    2.54
#  38   -0.05   -0.02    0.00    0.11   -0.01    0.00    0.00       0.03    4.34   -0.28
#  39   -0.16   -0.04    0.00    0.13   -0.01    0.00    0.00      -0.08    3.06   -0.28
#  40   -0.08   -0.02    0.00    0.06   -0.01    0.00    0.00      -0.05    2.30   -0.28
#  41   -0.32   -0.34    0.10    0.75   -0.07    0.00    0.00       0.12    2.81   -0.28
#  42   -0.49   -0.69    0.40    0.91   -0.12    0.00    0.00       0.01    2.05   -0.28
#  43   -7.17   -0.71    0.42    1.44   -0.12    0.00    0.00      -6.15    3.32   -0.28
#  44   -0.37   -0.07    0.01    0.34   -0.02    0.00    0.00      -0.10    5.03   -0.23
#  45   -0.89   -0.06    0.00    0.30   -0.02    0.00    0.00      -0.66    5.01   -0.26
#  46   -1.21   -0.03    0.00    0.23   -0.01    0.00    0.00      -1.02    6.19   -0.28
#  47   -1.11   -0.03    0.00    0.19   -0.01    0.00    0.00      -0.96    5.86   -0.27
#  48   -1.78   -0.07    0.00    0.48   -0.02    0.00    0.00      -1.38    6.93   -0.26
#  49   -3.46   -0.30    0.08    1.67   -0.06    0.00    0.00      -2.08    6.76   -0.26
#  50   -1.81   -1.56    4.73    1.70   -0.08    0.00    0.00       2.98    5.98   -0.28
#  51   -3.19    0.00    0.00    1.30    0.08    0.00    0.00      -1.82   20.30    1.22
#  52   -6.01   -1.01    1.70    3.48   -0.10    0.00    0.00      -1.95    9.51   -0.28
#  53   -1.92   -0.09    0.00    0.85   -0.03    0.00    0.00      -1.18    9.37   -0.28
#  54   -2.43   -0.26    0.07    1.53   -0.05    0.00    0.00      -1.15    7.92   -0.27
#  55   -2.90   -0.15    0.00    1.24   -0.04    0.00    0.00      -1.84    8.62   -0.28
#  56   -1.15   -0.19    0.04    1.09   -0.04    0.00    0.00      -0.24    8.03   -0.28
#  57   -2.41   -0.50    0.45    2.13   -0.08    0.00    0.00      -0.42    7.22   -0.28
#  58   -2.53   -0.41    0.05    1.10   -0.14    0.00    0.00      -1.93    2.18   -0.28
#  59   -2.45   -0.45    0.10    0.65   -0.13    0.00    0.00      -2.29    1.44   -0.28
#  60   -0.97   -0.45    0.11    0.45   -0.14    0.00    0.00      -1.00    0.91   -0.28
#  61   -1.21   -0.32    0.03    0.67   -0.13    0.00    0.00      -0.97    1.47   -0.28
#  62   -0.37   -0.35    0.07    1.12   -0.08    0.00    0.00       0.38    3.95   -0.28
#  63   -0.08   -0.42    0.26    1.67   -0.06    0.00    0.00       1.37    7.56   -0.28
#  64   -5.79   -0.44    0.26    2.01   -0.06    0.00    0.00      -4.03    9.07   -0.28
#  65   -2.43   -0.06    0.00    0.52   -0.02    0.00    0.00      -1.99    7.97   -0.26

@<TRIPOS>MOLECULE
          T529894        21
   65    69     0     0     0



@<TRIPOS>ATOM
      1 C1          3.9594    -9.6844    85.1655 C.3        1           0.0403
      2 O1          3.5059    -8.4528    84.6001 O.3        1          -0.2897
      3 C2          4.2391    -7.3448    84.8700 C.ar       1           0.3795
      4 C3          3.8342    -6.1110    84.3447 C.ar       1          -0.1599
      5 C4          4.5601    -4.9884    84.6074 C.ar       1           0.0083
      6 C5          5.7126    -5.1089    85.4122 C.ar       1           0.0416
      7 N1          6.4626    -4.0437    85.7038 N.ar       1          -0.3997
      8 C6          7.5345    -4.1483    86.4510 C.ar       1           0.0974
      9 C7          7.9418    -5.3757    86.9766 C.ar       1           0.1009
     10 F1          9.0515    -5.4481    87.7437 F          1          -0.1165
     11 C8          7.2159    -6.5046    86.7146 C.ar       1          -0.1010
     12 C9          7.6355    -7.8407    87.2713 C.3        1          -0.0887
     13 C10         6.9794    -8.0528    88.6371 C.3        1           0.0009
     14 N2          7.4016    -6.9857    89.5542 N.4        1          -0.3903
     15 H1          7.4292    -6.1038    89.0648 H          1           0.4360
     16 C11         8.7347    -7.2956    90.1036 C.3        1          -0.0432
     17 C12         8.3934    -8.0090    91.4258 C.3        1           0.0795
     18 O2          7.8494    -9.3104    91.1964 O.3        1          -0.5652
     19 C13         7.3264    -7.0323    91.9338 C.3        1          -0.1392
     20 C14         6.5278    -7.6343    93.0916 C.3        1           0.0112
     21 N3          5.8762    -6.5574    93.8492 N.4        1          -0.5046
     22 H2          6.5779    -5.9310    94.2143 H          1           0.4337
     23 H3          5.2537    -6.0471    93.2405 H          1           0.4244
     24 C15         5.1094    -7.1353    94.9608 C.3        1           0.0495
     25 C16         6.0391    -7.8974    95.8697 C.ar       1          -0.1695
     26 C17         6.6452    -7.2403    96.9390 C.ar       1          -0.1196
     27 C18         7.4899    -7.8991    97.7784 C.ar       1          -0.0814
     28 C19         7.7571    -9.2624    97.5669 C.ar       1          -0.0333
     29 C20         8.6234    -9.9762    98.4126 C.ar       1          -0.1122
     30 C21         8.8581   -11.2960    98.1772 C.ar       1          -0.0887
     31 C22         8.2518   -11.9532    97.1082 C.ar       1          -0.0987
     32 C23         7.4073   -11.2942    96.2685 C.ar       1          -0.1072
     33 C24         7.1406    -9.9307    96.4799 C.ar       1          -0.0622
     34 C25         6.2699    -9.2183    95.6374 C.ar       1          -0.0578
     35 C26         6.4703    -6.9007    90.6808 C.3        1           0.0065
     36 C27         6.0657    -6.3856    85.9113 C.ar       1           0.1555
     37 N4          5.3117    -7.4514    85.6241 N.ar       1          -0.5572
     38 H4          3.2849   -10.4890    84.8724 H          1           0.0508
     39 H5          4.9641    -9.9024    84.8030 H          1           0.1053
     40 H6          3.9754    -9.6013    86.2521 H          1           0.0613
     41 H7          2.9474    -6.0498    83.7313 H          1           0.1649
     42 H8          4.2609    -4.0301    84.2092 H          1           0.1697
     43 H9          8.1163    -3.2639    86.6650 H          1           0.1864
     44 H10         7.3224    -8.6324    86.5907 H          1           0.1111
     45 H11         8.7197    -7.8639    87.3815 H          1           0.1030
     46 H12         5.8953    -8.0296    88.5271 H          1           0.1384
     47 H13         7.2832    -9.0192    89.0398 H          1           0.1362
     48 H14         9.2840    -7.9593    89.4360 H          1           0.1492
     49 H15         9.2983    -6.3816    90.2912 H          1           0.1497
     50 H16         9.2536    -8.0492    92.0940 H          1           0.1176
     51 H17         8.4426    -9.9060    90.7183 H          1           0.4234
     52 H18         7.7667    -6.0756    92.2149 H          1           0.1401
     53 H19         5.7698    -8.3111    92.6972 H          1           0.1430
     54 H20         7.2002    -8.1855    93.7490 H          1           0.1454
     55 H21         4.6260    -6.3363    95.5229 H          1           0.1374
     56 H22         4.3514    -7.8121    94.5663 H          1           0.1396
     57 H23         6.4415    -6.1925    97.1038 H          1           0.1284
     58 H24         7.9530    -7.3766    98.6025 H          1           0.1392
     59 H25         9.1005    -9.4800    99.2448 H          1           0.1379
     60 H26         9.5245   -11.8421    98.8284 H          1           0.1368
     61 H27         8.4554   -13.0009    96.9433 H          1           0.1359
     62 H28         6.9449   -11.8165    95.4440 H          1           0.1342
     63 H29         5.7895    -9.7157    94.8078 H          1           0.1344
     64 H30         5.9574    -5.9390    90.6748 H          1           0.1557
     65 H31         5.7449    -7.7129    90.6328 H          1           0.1456
@<TRIPOS>BOND
     1    1    2 1
     2    1   38 1
     3    1   39 1
     4    1   40 1
     5    2    3 1
     6    3   37 ar
     7    3    4 ar
     8    4    5 ar
     9    4   41 1
    10    5    6 ar
    11    5   42 1
    12    6   36 ar
    13    6    7 ar
    14    7    8 ar
    15    8    9 ar
    16    8   43 1
    17    9   10 1
    18    9   11 ar
    19   11   12 1
    20   11   36 ar
    21   12   13 1
    22   12   44 1
    23   12   45 1
    24   13   14 1
    25   13   46 1
    26   13   47 1
    27   14   15 1
    28   14   35 1
    29   14   16 1
    30   16   17 1
    31   16   48 1
    32   16   49 1
    33   17   18 1
    34   17   19 1
    35   17   50 1
    36   18   51 1
    37   19   20 1
    38   19   35 1
    39   19   52 1
    40   20   21 1
    41   20   53 1
    42   20   54 1
    43   21   22 1
    44   21   23 1
    45   21   24 1
    46   24   25 1
    47   24   55 1
    48   24   56 1
    49   25   34 ar
    50   25   26 ar
    51   26   27 ar
    52   26   57 1
    53   27   28 ar
    54   27   58 1
    55   28   33 ar
    56   28   29 ar
    57   29   30 ar
    58   29   59 1
    59   30   31 ar
    60   30   60 1
    61   31   32 ar
    62   31   61 1
    63   32   33 ar
    64   32   62 1
    65   33   34 ar
    66   34   63 1
    67   35   64 1
    68   35   65 1
    69   36   37 ar
##########                 Name:              T529169
##########          Protonation:                   99
##########               SMILES:   H](Cc1ccc(cc1)C[C@H](C)[NH2+]C[C@H](c2cccc(c2)Cl)O)[NH2+]C[C@H](COc3ccccc3)O
##########            Long Name:   R)-2-hydroxy-3-phenoxy-propyl]ammonio]propyl]phenyl]-1-methyl-ethyl]ammonium
##########          FlexRecCode: 1
##########               Number:                  193
##########   Ligand Source File: /raidb/db2/rgc/tcams/tcams-0000818.db2.gz
##########           GlobalRank: 10
##########                 Rank:                    1
##########               Setnum:                   33
##########             Matchnum:                  221
##########                Cloud:                    1
##########        Electrostatic:           -41.037750
##########        Van der Waals:           -31.453556
##########  Ligand Polar Desolv:             2.094171
########## Ligand Apolar Desolv:            -2.834536
##########      Internal Energy:             0.000000
##########      Receptor Energy: 0.0
########## Receptor Desolvation:             0.000000
########## Receptor Hydrophobic:             0.000000
##########         Total Energy: -73.23
##########        Ligand Charge:             2.000000
##########            Arbitrary:    +999.9990
##########     heavy atom count:   35
##########           pose count:    1
##########        Ligand Energy:             0.000000
# num electro vdwattr vdwrepu polsolv apolsol rdesolv rhydroe totalscore fullpol fullapo
#   1    5.35   -1.16    0.20   -3.41   -0.08    0.00    0.00       0.90   -7.73   -0.19
#   2   -0.83   -0.54    0.02    1.05   -0.07    0.00    0.00      -0.37    3.55   -0.24
#   3    2.81   -0.71    0.09   -1.22   -0.06    0.00    0.00       0.91   -4.26   -0.21
#   4    1.81   -0.52    0.02   -0.69   -0.06    0.00    0.00       0.56   -3.56   -0.33
#   5    0.98   -0.37    0.01   -0.73   -0.05    0.00    0.00      -0.16   -5.16   -0.38
#   6    0.22   -0.32    0.01   -0.55   -0.05    0.00    0.00      -0.68   -4.57   -0.45
#   7    0.33   -0.25    0.01   -0.34   -0.03    0.00    0.00      -0.28   -3.60   -0.33
#   8    0.05   -0.13    0.01   -0.35   -0.02    0.00    0.00      -0.43   -4.18   -0.21
#   9   -0.03   -0.06    0.00    0.15   -0.01    0.00    0.00       0.06    3.46   -0.24
#  10    0.14   -0.04    0.00   -0.25   -0.01    0.00    0.00      -0.16   -7.63   -0.19
#  11    0.81   -0.08    0.00   -1.01    0.03    0.00    0.00      -0.25  -21.71    0.62
#  12   -1.52    0.00    0.00    0.63    0.01    0.00    0.00      -0.88   21.30    0.42
#  13   -0.65    0.00    0.00    0.46    0.01    0.00    0.00      -0.18   20.38    0.53
#  14    0.08   -0.11    0.00   -0.08   -0.02    0.00    0.00      -0.13   -1.17   -0.36
#  15   -0.33   -0.24    0.01    0.76   -0.02    0.00    0.00       0.18    5.74   -0.14
#  16    1.27   -0.37    0.06   -2.56    0.20    0.00    0.00      -1.41  -20.53    1.64
#  17    0.30   -0.65    0.05   -0.58   -0.07    0.00    0.00      -0.95   -2.73   -0.35
#  18    0.23   -1.10    0.11   -0.99   -0.16    0.00    0.00      -1.90   -2.79   -0.44
#  19    0.20   -2.58    1.12   -1.43   -0.22    0.00    0.00      -2.91   -3.12   -0.47
#  20    0.17   -2.50    0.79   -1.45   -0.21    0.00    0.00      -3.20   -3.21   -0.46
#  21    0.05   -1.39    0.21   -0.61   -0.11    0.00    0.00      -1.85   -1.69   -0.30
#  22    0.05   -6.00    4.65   -0.85   -0.38    0.00    0.00      -2.54   -2.20   -0.98
#  23    0.18   -0.74    0.07   -0.59   -0.11    0.00    0.00      -1.18   -2.39   -0.44
#  24    1.26   -0.27    0.01   -0.54   -0.04    0.00    0.00       0.42   -5.08   -0.38
#  25    1.78   -0.54    0.04   -0.81   -0.08    0.00    0.00       0.39   -4.44   -0.45
#  26   16.80   -1.07    0.31   -7.50    0.21    0.00    0.00       8.75  -21.73    0.62
#  27  -14.47   -0.02    0.00    3.50    0.07    0.00    0.00     -10.92   20.67    0.42
#  28  -19.35   -0.04    0.00    6.68    0.18    0.00    0.00     -12.52   19.48    0.53
#  29    1.11   -0.64    0.04   -0.26   -0.13    0.00    0.00       0.12   -0.74   -0.36
#  30   -2.19   -1.07    0.20    1.54   -0.06    0.00    0.00      -1.58    3.73   -0.15
#  31   17.89   -2.34    0.53  -10.39    0.82    0.00    0.00       6.50  -19.37    1.53
#  32   -0.52   -1.13    0.21   -0.29   -0.03    0.00    0.00      -1.76   -0.67   -0.08
#  33    3.44   -0.99    0.06   -2.83    0.30    0.00    0.00      -0.01   -7.49    0.79
#  34   -1.15   -1.52    0.25    1.02   -0.13    0.00    0.00      -1.53    2.51   -0.31
#  35    1.34   -1.49    0.22   -1.56   -0.17    0.00    0.00      -1.66   -3.84   -0.42
#  36    0.59   -1.62    0.23   -0.92   -0.26    0.00    0.00      -1.98   -1.69   -0.47
#  37    1.22   -2.20    0.63   -1.54   -0.27    0.00    0.00      -2.15   -2.72   -0.47
#  38    1.05   -2.57    1.14   -0.83   -0.26    0.00    0.00      -1.46   -1.50   -0.47
#  39    2.16   -1.96    0.45   -1.54   -0.24    0.00    0.00      -1.12   -2.90   -0.46
#  40   -3.07   -0.43    0.08    0.70   -0.09    0.00    0.00      -2.81    2.11   -0.28
#  41   -2.91   -0.59    0.22    1.79   -0.09    0.00    0.00      -1.59    4.05   -0.21
#  42   -2.30   -0.31    0.05    0.70   -0.08    0.00    0.00      -1.94    2.51   -0.28
#  43   -2.46   -0.11    0.00    0.84   -0.03    0.00    0.00      -1.76    8.84   -0.28
#  44   -2.64   -0.22    0.03    0.64   -0.06    0.00    0.00      -2.24    3.23   -0.28
#  45   -4.13   -0.52    0.21    1.13   -0.09    0.00    0.00      -3.40    3.53   -0.28
#  46   -1.04   -0.07    0.00    0.38   -0.02    0.00    0.00      -0.75    5.67   -0.28
#  47   -0.14   -0.06    0.00    0.24   -0.02    0.00    0.00       0.02    4.25   -0.28
#  48   -0.04   -0.03    0.00    0.17   -0.01    0.00    0.00       0.08    3.97   -0.28
#  49   -0.04   -0.06    0.01    0.19   -0.02    0.00    0.00       0.07    2.95   -0.28
#  50   -0.15   -0.02    0.00    0.21   -0.01    0.00    0.00       0.04    7.95   -0.28
#  51   -0.09   -0.01    0.00    0.04   -0.01    0.00    0.00      -0.07    1.90   -0.28
#  52   -0.06   -0.01    0.00    0.06    0.00    0.00    0.00       0.00    3.70   -0.21
#  53   -0.06   -0.01    0.00    0.06   -0.01    0.00    0.00      -0.02    2.92   -0.28
#  54   -0.19   -0.02    0.00    0.19   -0.01    0.00    0.00      -0.03    6.52   -0.23
#  55   -0.24   -0.04    0.00    0.35   -0.01    0.00    0.00       0.05    8.56   -0.28
#  56   -0.37   -0.08    0.00    0.64   -0.02    0.00    0.00       0.16    7.58   -0.28
#  57   -0.90    0.00    0.00    0.75    0.05    0.00    0.00      -0.10   14.93    1.01
#  58   -0.29   -0.26    0.04    1.51   -0.06    0.00    0.00       0.95    6.06   -0.24
#  59   -0.30   -1.37    2.08    1.16   -0.14    0.00    0.00       1.44    2.30   -0.28
#  60   -0.23   -1.12    1.02    0.49   -0.14    0.00    0.00       0.02    0.99   -0.28
#  61   -0.22   -0.09    0.01    0.60   -0.03    0.00    0.00       0.26    6.67   -0.28
#  62   -1.34   -0.04    0.00    0.24   -0.01    0.00    0.00      -1.15    6.36   -0.28
#  63   -4.46   -0.25    0.07    0.82   -0.05    0.00    0.00      -3.86    4.87   -0.28
#  64   -3.31   -0.29    0.05    1.68   -0.05    0.00    0.00      -1.93    7.04   -0.22
#  65   -2.01   -0.15    0.01    1.34   -0.04    0.00    0.00      -0.85   10.04   -0.28
#  66   -3.20   -0.44    0.22    1.57   -0.08    0.00    0.00      -1.93    5.71   -0.28
#  67  -17.69   -0.06    0.00    7.32    0.65    0.00    0.00      -9.77   13.72    1.22
#  68   -1.47   -0.77    0.63    0.95   -0.10    0.00    0.00      -0.75    2.60   -0.26
#  69   -1.30   -0.43    0.21    1.41   -0.09    0.00    0.00      -0.20    4.32   -0.27
#  70   -0.41   -0.28    0.03    1.25   -0.06    0.00    0.00       0.53    4.96   -0.22
#  71   -1.05   -0.31    0.02    1.10   -0.13    0.00    0.00      -0.37    2.46   -0.28
#  72   -0.62   -0.60    0.22    0.74   -0.16    0.00    0.00      -0.41    1.32   -0.28
#  73   -2.41   -0.90    1.14    0.81   -0.15    0.00    0.00      -1.51    1.49   -0.28
#  74   -2.53   -0.39    0.04    0.92   -0.14    0.00    0.00      -2.10    1.83   -0.28

@<TRIPOS>MOLECULE
          T529169        99
   74    76     0     0     0



@<TRIPOS>ATOM
      1 C1          3.1117    -4.5069    95.1183 C.3        1          -0.1879
      2 C2          3.6252    -5.6099    94.1905 C.3        1           0.0318
      3 C3          3.1907    -5.3113    92.7541 C.3        1          -0.1084
      4 C4          3.2475    -6.5773    91.9388 C.ar       1          -0.1089
      5 C5          2.1381    -7.3981    91.8583 C.ar       1          -0.1287
      6 C6          2.1902    -8.5595    91.1103 C.ar       1          -0.0916
      7 C7          3.3516    -8.8998    90.4423 C.ar       1          -0.1083
      8 C8          3.4086   -10.1660    89.6273 C.3        1          -0.1085
      9 C9          2.9728    -9.8682    88.1911 C.3        1           0.0315
     10 C10         2.5506   -11.1695    87.5061 C.3        1          -0.1875
     11 N1          4.0927    -9.2678    87.4541 N.4        1          -0.5067
     12 H1          4.5802    -8.6187    88.0533 H          1           0.4201
     13 H2          4.7277    -9.9936    87.1574 H          1           0.4324
     14 C11         3.5783    -8.5558    86.2768 C.3        1          -0.0493
     15 C12         4.7446    -7.9303    85.5090 C.3        1           0.1402
     16 O1          5.8469    -8.8398    85.4935 O.3        1          -0.5443
     17 C13         4.3154    -7.6370    84.0946 C.ar       1          -0.1335
     18 C14         3.7552    -6.4122    83.7822 C.ar       1          -0.1028
     19 C15         3.3616    -6.1423    82.4850 C.ar       1          -0.0919
     20 C16         3.5274    -7.0971    81.4993 C.ar       1          -0.0880
     21 C17         4.0878    -8.3228    81.8113 C.ar       1          -0.0313
     22 Cl1         4.2969    -9.5222    80.5738 Cl         1          -0.0478
     23 C18         4.4868    -8.5902    83.1088 C.ar       1          -0.0967
     24 C19         4.4606    -8.0783    90.5216 C.ar       1          -0.1281
     25 C20         4.4073    -6.9151    91.2665 C.ar       1          -0.0925
     26 N2          5.0917    -5.6627    94.2575 N.4        1          -0.5049
     27 H3          5.4490    -6.1327    93.4392 H          1           0.4214
     28 H4          5.4607    -4.7242    94.2944 H          1           0.4339
     29 C21         5.5006    -6.3973    95.4620 C.3        1          -0.0485
     30 C22         7.0281    -6.4524    95.5318 C.3        1           0.0884
     31 O2          7.5506    -5.1234    95.5841 O.3        1          -0.5417
     32 C23         7.4540    -7.2176    96.7863 C.3        1           0.0295
     33 O3          6.9313    -8.5467    96.7339 O.3        1          -0.3032
     34 C24         7.6523    -9.5180    97.3531 C.ar       1           0.1131
     35 C25         7.6207   -10.8194    96.8735 C.ar       1          -0.2092
     36 C26         8.3549   -11.8049    97.5045 C.ar       1          -0.0795
     37 C27         9.1204   -11.4953    98.6135 C.ar       1          -0.1440
     38 C28         9.1533   -10.1991    99.0937 C.ar       1          -0.0751
     39 C29         8.4257    -9.2088    98.4625 C.ar       1          -0.1437
     40 H5          3.4212    -4.7196    96.1416 H          1           0.1124
     41 H6          3.5244    -3.5478    94.8057 H          1           0.0853
     42 H7          2.0235    -4.4677    95.0686 H          1           0.0883
     43 H8          3.2123    -6.5690    94.5030 H          1           0.1408
     44 H9          2.1712    -4.9256    92.7556 H          1           0.1286
     45 H10         3.8594    -4.5687    92.3191 H          1           0.1056
     46 H11         1.2307    -7.1322    92.3801 H          1           0.1325
     47 H12         1.3237    -9.2010    91.0481 H          1           0.1399
     48 H13         4.4283   -10.5511    89.6250 H          1           0.1054
     49 H14         2.7406   -10.9090    90.0630 H          1           0.1281
     50 H15         2.1321    -9.1745    88.2031 H          1           0.1402
     51 H16         2.2401   -10.9575    86.4830 H          1           0.1119
     52 H17         3.3912   -11.8633    87.4943 H          1           0.0854
     53 H18         1.7195   -11.6151    88.0530 H          1           0.0879
     54 H19         3.0517    -9.2570    85.6294 H          1           0.1441
     55 H20         2.8922    -7.7717    86.5972 H          1           0.1435
     56 H21         5.0455    -7.0034    85.9972 H          1           0.1272
     57 H22         6.1763    -9.0736    86.3720 H          1           0.3927
     58 H23         3.6249    -5.6661    84.5521 H          1           0.1308
     59 H24         2.9242    -5.1853    82.2416 H          1           0.1453
     60 H25         3.2192    -6.8864    80.4859 H          1           0.1456
     61 H26         4.9282    -9.5455    83.3523 H          1           0.1331
     62 H27         5.3678    -8.3441    89.9994 H          1           0.1327
     63 H28         5.2726    -6.2715    91.3257 H          1           0.1397
     64 H29         5.1146    -5.8898    96.3458 H          1           0.1463
     65 H30         5.1020    -7.4112    95.4220 H          1           0.1447
     66 H31         7.4141    -6.9601    94.6479 H          1           0.1296
     67 H32         7.3193    -4.5794    94.8188 H          1           0.3939
     68 H33         8.5421    -7.2570    96.8360 H          1           0.0784
     69 H34         7.0679    -6.7100    97.6702 H          1           0.0785
     70 H35         7.0223   -11.0620    96.0078 H          1           0.1220
     71 H36         8.3306   -12.8182    97.1315 H          1           0.1292
     72 H37         9.6935   -12.2673    99.1056 H          1           0.1313
     73 H38         9.7518    -9.9599    99.9603 H          1           0.1367
     74 H39         8.4553    -8.1957    98.8354 H          1           0.1329
@<TRIPOS>BOND
     1    1    2 1
     2    1   40 1
     3    1   41 1
     4    1   42 1
     5    2    3 1
     6    2   26 1
     7    2   43 1
     8    3    4 1
     9    3   44 1
    10    3   45 1
    11    4   25 ar
    12    4    5 ar
    13    5    6 ar
    14    5   46 1
    15    6    7 ar
    16    6   47 1
    17    7    8 1
    18    7   24 ar
    19    8    9 1
    20    8   48 1
    21    8   49 1
    22    9   10 1
    23    9   11 1
    24    9   50 1
    25   10   51 1
    26   10   52 1
    27   10   53 1
    28   11   12 1
    29   11   13 1
    30   11   14 1
    31   14   15 1
    32   14   54 1
    33   14   55 1
    34   15   16 1
    35   15   17 1
    36   15   56 1
    37   16   57 1
    38   17   23 ar
    39   17   18 ar
    40   18   19 ar
    41   18   58 1
    42   19   20 ar
    43   19   59 1
    44   20   21 ar
    45   20   60 1
    46   21   22 1
    47   21   23 ar
    48   23   61 1
    49   24   25 ar
    50   24   62 1
    51   25   63 1
    52   26   27 1
    53   26   28 1
    54   26   29 1
    55   29   30 1
    56   29   64 1
    57   29   65 1
    58   30   31 1
    59   30   32 1
    60   30   66 1
    61   31   67 1
    62   32   33 1
    63   32   68 1
    64   32   69 1
    65   33   34 1
    66   34   39 ar
    67   34   35 ar
    68   35   36 ar
    69   35   70 1
    70   36   37 ar
    71   36   71 1
    72   37   38 ar
    73   37   72 1
    74   38   39 ar
    75   38   73 1
    76   39   74 1
##########                 Name:              T527194
##########          Protonation:                   27
##########               SMILES:   cc1)c2ccc(cc2)C(F)(F)F)CNc3nc(nc([nH+]3)NCCc4ccc(cc4)O)N5CC[C@@H](CC5)[NH3+]
##########            Long Name:   yl)phenyl]phenyl]methylamino]-1,3,5-triazin-5-ium-2-yl]-4-piperidyl]ammonium
##########          FlexRecCode: 1
##########               Number:                  155
##########   Ligand Source File: /raidb/db2/rgc/tcams/tcams-0000240.db2.gz
##########           GlobalRank: 11
##########                 Rank:                    1
##########               Setnum:                  383
##########             Matchnum:                 3904
##########                Cloud:                    1
##########        Electrostatic:           -48.677544
##########        Van der Waals:           -29.885725
##########  Ligand Polar Desolv:             9.259029
########## Ligand Apolar Desolv:            -3.550943
##########      Internal Energy:             0.000000
##########      Receptor Energy: 0.0
########## Receptor Desolvation:             0.000000
########## Receptor Hydrophobic:             0.000000
##########         Total Energy: -72.86
##########        Ligand Charge:             2.000000
##########            Arbitrary:    +999.9990
##########     heavy atom count:   41
##########           pose count:    1
##########        Ligand Energy:             0.000000
# num electro vdwattr vdwrepu polsolv apolsol rdesolv rhydroe totalscore fullpol fullapo
#   1    0.66   -0.13    0.00   -2.00    0.05    0.00    0.00      -1.42  -29.56    0.74
#   2   -0.38    0.00    0.00    0.57    0.01    0.00    0.00       0.20   23.03    0.58
#   3   -0.48    0.00    0.00    0.92    0.02    0.00    0.00       0.46   22.28    0.58
#   4   -0.50    0.00    0.00    0.80    0.02    0.00    0.00       0.32   22.98    0.58
#   5   -0.02   -0.09    0.00    0.17   -0.02    0.00    0.00       0.03    2.83   -0.29
#   6    0.24   -0.18    0.00   -0.67   -0.03    0.00    0.00      -0.63   -5.92   -0.24
#   7   -0.16   -0.19    0.00    0.40   -0.06    0.00    0.00       0.00    3.19   -0.48
#   8    1.45   -0.19    0.00   -1.43    0.14    0.00    0.00      -0.03  -17.29    1.68
#   9   -0.12   -0.08    0.00    0.18   -0.03    0.00    0.00      -0.04    3.22   -0.48
#  10    0.17   -0.08    0.00   -0.30   -0.01    0.00    0.00      -0.21   -5.95   -0.24
#  11   -5.37   -0.33    0.01    2.71   -0.65    0.00    0.00      -3.63   19.46   -4.68
#  12    6.06   -0.42    0.01   -3.49    0.33    0.00    0.00       2.50  -19.23    1.84
#  13  -15.95   -1.33    0.31    6.17   -1.35    0.00    0.00     -12.16   21.96   -4.81
#  14   16.59   -2.01    0.80   -6.39    0.52    0.00    0.00       9.51  -20.51    1.68
#  15   -1.66   -0.41    0.03    0.82   -0.07    0.00    0.00      -1.29    4.02   -0.33
#  16    2.30   -0.73    0.05   -0.49   -0.09    0.00    0.00       1.03   -1.93   -0.37
#  17    1.97   -1.23    0.15   -0.75   -0.17    0.00    0.00      -0.04   -2.05   -0.45
#  18    3.39   -1.93    0.56   -1.24   -0.20    0.00    0.00       0.58   -2.93   -0.47
#  19    2.18   -1.47    0.33   -0.96   -0.17    0.00    0.00      -0.09   -2.62   -0.47
#  20    1.71   -0.69    0.04   -0.66   -0.12    0.00    0.00       0.29   -2.62   -0.46
#  21    0.63   -0.59    0.04   -0.18   -0.08    0.00    0.00      -0.18   -0.88   -0.38
#  22    0.36   -0.49    0.03    0.00   -0.06    0.00    0.00      -0.15    0.01   -0.33
#  23    2.54   -1.31    0.34   -0.58   -0.13    0.00    0.00       0.86   -2.14   -0.46
#  24    1.16   -1.36    0.56   -0.39   -0.11    0.00    0.00      -0.14   -1.57   -0.44
#  25    1.90   -0.63    0.12   -0.64   -0.06    0.00    0.00       0.69   -3.73   -0.38
#  26    0.53   -0.27    0.01   -0.16   -0.05    0.00    0.00       0.07   -1.57   -0.44
#  27    1.12   -0.22    0.01   -0.22   -0.03    0.00    0.00       0.65   -2.36   -0.37
#  28   -3.53   -0.48    0.07    1.52   -0.01    0.00    0.00      -2.43    7.31   -0.07
#  29    1.56   -0.52    0.07   -0.71   -0.12    0.00    0.00       0.29   -2.79   -0.48
#  30    0.33   -0.64    0.26   -0.53   -0.09    0.00    0.00      -0.66   -2.67   -0.45
#  31    1.23   -0.42    0.07   -0.59   -0.10    0.00    0.00       0.18   -2.57   -0.45
#  32   24.41   -3.32    3.02   -7.19    0.34    0.00    0.00      17.27  -20.69    0.99
#  33  -28.72   -0.29    0.15    7.15    0.15    0.00    0.00     -21.55   16.64    0.36
#  34  -17.98   -1.34    0.30    6.38   -1.38    0.00    0.00     -14.02   22.21   -4.81
#  35   19.54   -1.72    0.46   -7.34    0.59    0.00    0.00      11.53  -21.38    1.72
#  36   -2.05   -0.56    0.03    0.93   -0.11    0.00    0.00      -1.77    3.13   -0.38
#  37    2.25   -1.08    0.16   -1.04   -0.10    0.00    0.00       0.20   -2.40   -0.23
#  38    3.44   -1.62    0.24   -0.71   -0.15    0.00    0.00       1.19   -1.67   -0.36
#  39    3.76   -2.81    0.94   -1.00   -0.24    0.00    0.00       0.64   -1.89   -0.46
#  40    5.95   -3.49    1.87   -1.67   -0.26    0.00    0.00       2.40   -2.96   -0.46
#  41   -3.58   -2.30    0.69    0.22   -0.15    0.00    0.00      -5.12    0.44   -0.31
#  42   13.47   -4.48    5.00   -3.29    0.64    0.00    0.00      11.34   -6.11    1.19
#  43    2.99   -1.46    0.33   -1.24   -0.20    0.00    0.00       0.42   -2.93   -0.46
#  44    1.99   -1.29    0.16   -0.73   -0.17    0.00    0.00      -0.03   -1.93   -0.46
#  45    8.08   -0.51    0.03   -3.66    0.34    0.00    0.00       4.29  -19.53    1.84
#  46   -0.13   -0.03    0.00    0.22   -0.01    0.00    0.00       0.05    7.22   -0.28
#  47   -0.15   -0.05    0.00    0.21   -0.02    0.00    0.00      -0.01    3.79   -0.28
#  48   -0.20   -0.08    0.00    0.50   -0.02    0.00    0.00       0.20    5.63   -0.28
#  49   -0.27   -0.06    0.00    0.14   -0.01    0.00    0.00      -0.21    2.54   -0.24
#  50   -0.08   -0.09    0.01    0.31   -0.03    0.00    0.00       0.11    3.01   -0.28
#  51   -0.22   -0.02    0.00    0.08   -0.01    0.00    0.00      -0.16    2.74   -0.24
#  52   -0.07   -0.02    0.00    0.09   -0.01    0.00    0.00      -0.01    3.06   -0.28
#  53   -0.11   -0.02    0.00    0.14   -0.01    0.00    0.00       0.00    5.73   -0.28
#  54   -0.12   -0.03    0.00    0.14   -0.01    0.00    0.00      -0.02    3.84   -0.28
#  55  -20.07   -0.09    0.01    4.93    0.22    0.00    0.00     -15.01   13.29    0.58
#  56   -1.10   -0.05    0.00    0.20   -0.01    0.00    0.00      -0.96    4.14   -0.17
#  57   -0.49   -0.11    0.00    0.59   -0.03    0.00    0.00      -0.03    5.77   -0.27
#  58   -2.13   -0.29    0.04    1.33   -0.07    0.00    0.00      -1.13    5.06   -0.28
#  59   -5.81   -1.03    1.95    1.04   -0.12    0.00    0.00      -3.97    2.45   -0.28
#  60   -4.01   -0.63    0.65    0.52   -0.09    0.00    0.00      -3.56    1.69   -0.28
#  61   -1.69   -0.10    0.00    0.18   -0.03    0.00    0.00      -1.64    1.90   -0.28
#  62   -5.19   -0.68    0.50    1.14   -0.09    0.00    0.00      -4.33    3.42   -0.28
#  63   -3.34   -0.39    0.20    0.57   -0.06    0.00    0.00      -3.03    2.38   -0.27
#  64   -0.68   -0.03    0.00    0.11   -0.01    0.00    0.00      -0.61    3.44   -0.27
#  65   -0.81   -0.03    0.00    0.16   -0.01    0.00    0.00      -0.68    5.42   -0.24
#  66  -17.01   -0.06    0.00    5.78    0.23    0.00    0.00     -11.05   14.87    0.58
#  67   -1.97   -0.15    0.01    0.73   -0.04    0.00    0.00      -1.43    4.54   -0.27
#  68   -1.63   -0.10    0.00    0.37   -0.02    0.00    0.00      -1.38    4.09   -0.27
#  69   -2.79   -0.82    0.67    1.16   -0.11    0.00    0.00      -1.89    2.97   -0.28
#  70   -2.38   -0.30    0.03    1.14   -0.10    0.00    0.00      -1.60    3.32   -0.28
#  71   -5.80   -0.72    0.19    2.36   -0.15    0.00    0.00      -4.12    4.37   -0.28
#  72   -6.50   -1.28    1.07    1.02   -0.17    0.00    0.00      -5.86    1.64   -0.28
#  73  -13.23   -0.13    0.01    4.07    0.77    0.00    0.00      -8.49    6.41    1.22
#  74   -2.14   -0.21    0.01    0.30   -0.06    0.00    0.00      -2.10    1.45   -0.28
#  75   -2.00   -0.22    0.01    1.05   -0.07    0.00    0.00      -1.23    3.95   -0.28

@<TRIPOS>MOLECULE
          T527194        27
   75    79     0     0     0



@<TRIPOS>ATOM
      1 N1         -1.2519    -9.8757    88.1749 N.4        1          -0.6363
      2 H1         -1.1060   -10.4967    87.3932 H          1           0.4412
      3 H2         -1.5352    -8.9687    87.8355 H          1           0.4350
      4 H3         -1.9728   -10.2512    88.7728 H          1           0.4411
      5 C1         -0.0027    -9.7452    88.9366 C.3        1           0.0228
      6 C2         -0.2249    -8.8044    90.1231 C.3        1          -0.1609
      7 C3          1.0700    -8.6980    90.9347 C.3        1           0.1167
      8 N2          2.1588    -8.2896    90.0365 N.pl3      1          -0.5494
      9 C4          2.4003    -9.0733    88.8173 C.3        1           0.1166
     10 C5          1.0905    -9.1756    88.0296 C.3        1          -0.1609
     11 C6          2.9397    -7.1908    90.3323 C.ar       1           0.6856
     12 N3          3.9215    -6.8325    89.5107 N.ar       1          -0.6210
     13 C7          4.6735    -5.7741    89.7955 C.ar       1           0.6971
     14 N4          5.6925    -5.4019    88.9425 N.pl3      1          -0.6455
     15 C8          6.2384    -6.3694    87.9873 C.3        1           0.1291
     16 C9          7.6890    -6.0547    87.7272 C.ar       1          -0.1196
     17 C10         8.0373    -5.1920    86.7073 C.ar       1          -0.0866
     18 C11         9.3682    -4.9023    86.4676 C.ar       1          -0.1077
     19 C12        10.3574    -5.4742    87.2476 C.ar       1          -0.0859
     20 C13        10.0205    -6.3376    88.2700 C.ar       1          -0.0975
     21 C14         8.6807    -6.6292    88.5193 C.ar       1          -0.0336
     22 C15         8.3121    -7.5530    89.6205 C.ar       1          -0.0220
     23 C16         8.0662    -7.0547    90.8983 C.ar       1          -0.1040
     24 C17         7.7232    -7.9183    91.9189 C.ar       1          -0.0600
     25 C18         7.6235    -9.2762    91.6748 C.ar       1          -0.1750
     26 C19         7.8669    -9.7764    90.4085 C.ar       1          -0.0685
     27 C20         8.2051    -8.9212    89.3794 C.ar       1          -0.1215
     28 C21         7.2486   -10.2142    92.7933 C.3        1           0.5054
     29 F1          7.0538    -9.4827    93.9698 F          1          -0.1800
     30 F2          6.0677   -10.8870    92.4615 F          1          -0.1717
     31 F3          8.2762   -11.1435    92.9867 F          1          -0.1701
     32 N5          4.4437    -5.0738    90.9020 N.ar       1          -0.6343
     33 H4          4.9925    -4.3014    91.1098 H          1           0.4390
     34 C22         3.4617    -5.4317    91.7231 C.ar       1           0.6976
     35 N6          3.2228    -4.7044    92.8715 N.pl3      1          -0.6532
     36 C23         2.4734    -5.3063    93.9771 C.3        1           0.0883
     37 C24         2.9478    -4.7051    95.3017 C.3        1          -0.0831
     38 C25         4.4180    -4.9827    95.4815 C.ar       1          -0.1166
     39 C26         5.3535    -4.0835    95.0041 C.ar       1          -0.0933
     40 C27         6.7020    -4.3357    95.1677 C.ar       1          -0.1430
     41 C28         7.1170    -5.4920    95.8121 C.ar       1           0.1232
     42 O1          8.4429    -5.7421    95.9746 O.3        1          -0.4959
     43 C29         6.1764    -6.3924    96.2906 C.ar       1          -0.1423
     44 C30         4.8291    -6.1333    96.1288 C.ar       1          -0.0927
     45 N7          2.7064    -6.4873    91.4357 N.ar       1          -0.6225
     46 H5          0.3034   -10.7252    89.3028 H          1           0.1502
     47 H6         -0.5069    -7.8173    89.7569 H          1           0.0965
     48 H7         -1.0197    -9.1989    90.7564 H          1           0.1145
     49 H8          0.9477    -7.9542    91.7221 H          1           0.1266
     50 H9          1.3048    -9.6661    91.3769 H          1           0.1002
     51 H10         3.1555    -8.5773    88.2078 H          1           0.1269
     52 H11         2.7435   -10.0722    89.0870 H          1           0.1004
     53 H12         1.2318    -9.8343    87.1726 H          1           0.1147
     54 H13         0.7960    -8.1850    87.6829 H          1           0.0965
     55 H14         6.0473    -4.4997    88.9751 H          1           0.4451
     56 H15         6.1531    -7.3748    88.3997 H          1           0.0986
     57 H16         5.6807    -6.3115    87.0526 H          1           0.0990
     58 H17         7.2692    -4.7428    86.0955 H          1           0.1321
     59 H18         9.6363    -4.2274    85.6682 H          1           0.1370
     60 H19        11.3952    -5.2448    87.0557 H          1           0.1386
     61 H20        10.7934    -6.7838    88.8781 H          1           0.1360
     62 H21         8.1441    -5.9947    91.0898 H          1           0.1419
     63 H22         7.5327    -7.5332    92.9097 H          1           0.1437
     64 H23         7.7880   -10.8374    90.2238 H          1           0.1404
     65 H24         8.3905    -9.3122    88.3897 H          1           0.1368
     66 H25         3.5510    -3.7947    92.9467 H          1           0.4459
     67 H26         1.4100    -5.1056    93.8471 H          1           0.0912
     68 H27         2.6415    -6.3833    93.9862 H          1           0.0914
     69 H28         2.7798    -3.6282    95.2928 H          1           0.0941
     70 H29         2.3902    -5.1529    96.1243 H          1           0.0934
     71 H30         5.0299    -3.1834    94.5026 H          1           0.1278
     72 H31         7.4324    -3.6333    94.7939 H          1           0.1349
     73 H32         9.0199    -5.0577    95.6088 H          1           0.3980
     74 H33         6.4969    -7.2934    96.7923 H          1           0.1352
     75 H34         4.0962    -6.8319    96.5047 H          1           0.1285
@<TRIPOS>BOND
     1    1    2 1
     2    1    3 1
     3    1    4 1
     4    1    5 1
     5    5   10 1
     6    5    6 1
     7    5   46 1
     8    6    7 1
     9    6   47 1
    10    6   48 1
    11    7    8 1
    12    7   49 1
    13    7   50 1
    14    8    9 1
    15    8   11 1
    16    9   10 1
    17    9   51 1
    18    9   52 1
    19   10   53 1
    20   10   54 1
    21   11   45 ar
    22   11   12 ar
    23   12   13 ar
    24   13   14 1
    25   13   32 ar
    26   14   15 1
    27   14   55 1
    28   15   16 1
    29   15   56 1
    30   15   57 1
    31   16   21 ar
    32   16   17 ar
    33   17   18 ar
    34   17   58 1
    35   18   19 ar
    36   18   59 1
    37   19   20 ar
    38   19   60 1
    39   20   21 ar
    40   20   61 1
    41   21   22 1
    42   22   27 ar
    43   22   23 ar
    44   23   24 ar
    45   23   62 1
    46   24   25 ar
    47   24   63 1
    48   25   26 ar
    49   25   28 1
    50   26   27 ar
    51   26   64 1
    52   27   65 1
    53   28   29 1
    54   28   30 1
    55   28   31 1
    56   32   33 1
    57   32   34 ar
    58   34   35 1
    59   34   45 ar
    60   35   36 1
    61   35   66 1
    62   36   37 1
    63   36   67 1
    64   36   68 1
    65   37   38 1
    66   37   69 1
    67   37   70 1
    68   38   44 ar
    69   38   39 ar
    70   39   40 ar
    71   39   71 1
    72   40   41 ar
    73   40   72 1
    74   41   42 1
    75   41   43 ar
    76   42   73 1
    77   43   44 ar
    78   43   74 1
    79   44   75 1
##########                 Name:              T532284
##########          Protonation:                   13
##########               SMILES:   CN([C@H]1CC[NH+](CC1)Cc2cc(ccc2)F)c3[nH+]ccc(c3)NC(=O)c4ccccc4
##########            Long Name:   henyl)methyl]piperidin-1-ium-4-yl]-methyl-amino]pyridin-1-ium-4-yl]benzamide
##########          FlexRecCode: 1
##########               Number:                  110
##########   Ligand Source File: /raidb/db2/rgc/tcams/tcams-0001010.db2.gz
##########           GlobalRank: 12
##########                 Rank:                    1
##########               Setnum:                  137
##########             Matchnum:                  281
##########                Cloud:                    1
##########        Electrostatic:           -51.262680
##########        Van der Waals:           -40.940411
##########  Ligand Polar Desolv:            25.915970
########## Ligand Apolar Desolv:            -6.307773
##########      Internal Energy:             0.000000
##########      Receptor Energy: 0.0
########## Receptor Desolvation:             0.000000
########## Receptor Hydrophobic:             0.000000
##########         Total Energy: -72.59
##########        Ligand Charge:             2.000000
##########            Arbitrary:    +999.9990
##########     heavy atom count:   31
##########           pose count:    1
##########        Ligand Energy:             0.000000
# num electro vdwattr vdwrepu polsolv apolsol rdesolv rhydroe totalscore fullpol fullapo
#   1   -1.38   -1.30    0.21    0.36   -0.20    0.00    0.00      -2.32    0.73   -0.41
#   2   14.87   -1.19    0.08   -9.80    0.53    0.00    0.00       4.50  -24.77    1.35
#   3   -2.69   -0.60    0.03    1.51   -0.08    0.00    0.00      -1.83    4.85   -0.26
#   4    3.64   -1.33    0.34   -2.76   -0.08    0.00    0.00      -0.19   -6.80   -0.20
#   5    0.65   -1.52    0.75   -0.55   -0.13    0.00    0.00      -0.80   -1.44   -0.34
#   6    6.16   -0.77    0.08   -5.33    0.09    0.00    0.00       0.22  -16.91    0.27
#   7   -5.20   -0.01    0.00    4.12    0.10    0.00    0.00      -0.99   21.84    0.54
#   8   -1.20   -1.05    0.34    1.06   -0.13    0.00    0.00      -0.99    2.84   -0.36
#   9    3.47   -1.79    0.38   -1.23   -0.16    0.00    0.00       0.67   -2.56   -0.33
#  10    2.44   -1.77    0.32   -1.40   -0.24    0.00    0.00      -0.64   -2.67   -0.45
#  11    1.82   -2.40    0.56   -2.03   -0.30    0.00    0.00      -2.35   -3.23   -0.47
#  12    2.76   -3.26    1.08   -2.93   -0.32    0.00    0.00      -2.68   -4.24   -0.47
#  13   -2.75   -3.63    1.18   -0.01   -0.22    0.00    0.00      -5.43   -0.02   -0.34
#  14    3.01   -3.61    2.37   -2.42   -0.34    0.00    0.00      -1.00   -3.39   -0.48
#  15    3.53   -3.08    1.06   -1.94   -0.21    0.00    0.00      -0.64   -3.34   -0.36
#  16    0.16   -0.36    0.01   -0.21   -0.07    0.00    0.00      -0.47   -0.98   -0.34
#  17    2.92   -0.40    0.01   -1.84   -0.05    0.00    0.00       0.63   -7.69   -0.22
#  18  -12.19   -1.45    0.20    7.84   -0.77    0.00    0.00      -6.37   19.44   -1.91
#  19    4.69   -1.19    0.13   -2.96   -0.16    0.00    0.00       0.50   -7.85   -0.43
#  20   -6.81   -1.53    0.36    3.34   -0.29    0.00    0.00      -4.94    7.71   -0.67
#  21   10.83   -1.43    0.16   -7.32    0.67    0.00    0.00       2.92  -17.92    1.64
#  22   -5.70   -1.27    0.12    4.49   -0.24    0.00    0.00      -2.60   12.18   -0.64
#  23    2.25   -1.52    0.43   -3.33    0.11    0.00    0.00      -2.06   -9.78    0.33
#  24    1.37   -1.54    0.28   -1.19   -0.16    0.00    0.00      -1.25   -3.06   -0.41
#  25    1.04   -1.94    0.66   -0.58   -0.21    0.00    0.00      -1.02   -1.21   -0.44
#  26    1.32   -2.26    0.88   -1.49   -0.26    0.00    0.00      -1.81   -2.74   -0.47
#  27    0.50   -2.01    0.33   -1.14   -0.27    0.00    0.00      -2.58   -1.95   -0.47
#  28    0.87   -1.63    0.18   -1.29   -0.25    0.00    0.00      -2.12   -2.38   -0.47
#  29    0.23   -1.56    0.22   -0.64   -0.19    0.00    0.00      -1.94   -1.57   -0.46
#  30    5.03   -2.63    1.03   -3.93   -0.21    0.00    0.00      -0.69   -7.64   -0.41
#  31   -6.52   -3.49    1.57    4.39   -0.55    0.00    0.00      -4.61    7.71   -0.97
#  32   18.76   -2.47    0.57   -9.97    0.41    0.00    0.00       7.29  -19.62    0.80
#  33  -17.16   -0.04    0.00   10.04    0.19    0.00    0.00      -6.97   20.34    0.39
#  34   -1.88   -0.63    0.30    2.92   -0.11    0.00    0.00       0.60    6.25   -0.23
#  35   -2.84   -0.58    0.17    1.67   -0.12    0.00    0.00      -1.70    3.37   -0.24
#  36   -2.61   -0.31    0.04    2.42   -0.07    0.00    0.00      -0.53    6.30   -0.18
#  37   -3.28   -0.18    0.01    1.08   -0.05    0.00    0.00      -2.41    5.51   -0.26
#  38   -3.42   -0.44    0.18    1.79   -0.08    0.00    0.00      -1.96    5.48   -0.23
#  39   -3.39   -0.89    0.59    2.65   -0.12    0.00    0.00      -1.16    6.19   -0.28
#  40   -2.78   -0.54    0.17    3.04   -0.05    0.00    0.00      -0.16    8.25   -0.13
#  41   -1.68   -1.33    3.20    2.97   -0.09    0.00    0.00       3.06    8.82   -0.28
#  42   -4.30   -0.93    2.79    2.60   -0.09    0.00    0.00       0.07    8.51   -0.28
#  43   -4.55   -0.33    0.08    2.65   -0.08    0.00    0.00      -2.22    9.24   -0.27
#  44   -2.69   -0.41    0.17    2.34   -0.09    0.00    0.00      -0.67    7.67   -0.28
#  45   -3.58   -1.07    1.27    1.47   -0.15    0.00    0.00      -2.05    2.77   -0.28
#  46   -3.61   -1.11    0.87    0.55   -0.17    0.00    0.00      -3.47    0.90   -0.28
#  47   -4.28   -1.31    1.86    3.52   -0.15    0.00    0.00      -0.36    6.74   -0.28
#  48   -0.68   -0.09    0.00    0.63   -0.02    0.00    0.00      -0.16    7.28   -0.27
#  49   -1.57   -0.10    0.01    0.45   -0.02    0.00    0.00      -1.24    4.40   -0.19
#  50   -1.32   -0.11    0.01    0.66   -0.03    0.00    0.00      -0.80    6.37   -0.28
#  51   -2.19   -0.16    0.01    0.72   -0.03    0.00    0.00      -1.66    4.26   -0.20
#  52   -2.25   -0.22    0.02    2.28   -0.06    0.00    0.00      -0.23    9.10   -0.22
#  53   -7.64   -0.03    0.00    4.64    0.15    0.00    0.00      -2.88   14.11    0.46
#  54   -2.14   -0.36    0.04    2.74   -0.10    0.00    0.00       0.19    6.21   -0.22
#  55   -1.73   -0.78    1.23    1.81   -0.15    0.00    0.00       0.38    3.46   -0.28
#  56   -0.46   -0.65    0.22    1.09   -0.16    0.00    0.00       0.05    1.95   -0.28
#  57   -1.35   -0.38    0.06    0.69   -0.13    0.00    0.00      -1.10    1.51   -0.28
#  58   -0.21   -0.36    0.07    0.40   -0.07    0.00    0.00      -0.18    1.38   -0.26
#  59   -5.90   -0.73    0.31    1.40   -0.12    0.00    0.00      -5.03    2.47   -0.22
#  60   -9.65   -1.18    0.72    5.86   -0.17    0.00    0.00      -4.43    9.54   -0.28

@<TRIPOS>MOLECULE
          T532284        13
   60    63     0     0     0



@<TRIPOS>ATOM
      1 C1          2.2558    -5.5683    96.7539 C.3        1           0.0550
      2 N1          3.0847    -5.3825    95.5604 N.pl3      1          -0.6050
      3 C2          2.4539    -5.2270    94.2474 C.3        1           0.1126
      4 C3          1.5303    -4.0060    94.2630 C.3        1          -0.1486
      5 C4          0.8320    -3.8889    92.9065 C.3        1          -0.0371
      6 N2          0.0408    -5.0988    92.6500 N.4        1          -0.3804
      7 H1         -0.4503    -4.9976    91.7745 H          1           0.4272
      8 C5         -0.9318    -5.2836    93.7352 C.3        1           0.0460
      9 C6         -1.8464    -4.0876    93.7993 C.ar       1          -0.1390
     10 C7         -2.3887    -3.5694    92.6377 C.ar       1          -0.1020
     11 C8         -3.2274    -2.4724    92.6947 C.ar       1          -0.0767
     12 C9         -3.5253    -1.8920    93.9133 C.ar       1          -0.1159
     13 C10        -2.9833    -2.4101    95.0770 C.ar       1           0.1130
     14 F1         -3.2737    -1.8438    96.2686 F          1          -0.1230
     15 C11        -2.1472    -3.5126    95.0191 C.ar       1          -0.1412
     16 C12         0.9203    -6.2721    92.5818 C.3        1          -0.0129
     17 C13         1.6218    -6.4714    93.9269 C.3        1          -0.1736
     18 C14         4.4702    -5.3537    95.6739 C.ar       1           0.4539
     19 C15         5.1413    -6.4580    96.1822 C.ar       1          -0.2385
     20 C16         6.5273    -6.4145    96.2892 C.ar       1           0.3205
     21 N3          7.2396    -7.5024    96.7940 N.am       1          -0.6650
     22 C17         6.7673    -8.7534    96.6265 C.2        1           0.5748
     23 O1          5.7204    -8.9339    96.0357 O.2        1          -0.4905
     24 C18         7.5222    -9.9062    97.1614 C.ar       1          -0.1622
     25 C19         8.3587    -9.7441    98.2671 C.ar       1          -0.0830
     26 C20         9.0600   -10.8242    98.7617 C.ar       1          -0.1230
     27 C21         8.9357   -12.0660    98.1643 C.ar       1          -0.0691
     28 C22         8.1086   -12.2334    97.0678 C.ar       1          -0.1212
     29 C23         7.3972   -11.1628    96.5668 C.ar       1          -0.0456
     30 C24         7.1881    -5.2550    95.8783 C.ar       1          -0.1691
     31 C25         6.4523    -4.2003    95.3842 C.ar       1           0.1671
     32 N4          5.1371    -4.2748    95.2908 N.ar       1          -0.5183
     33 H2          4.6458    -3.5179    94.9352 H          1           0.4381
     34 H3          2.8969    -5.6651    97.6301 H          1           0.0790
     35 H4          1.5990    -4.7073    96.8778 H          1           0.1001
     36 H5          1.6548    -6.4707    96.6420 H          1           0.1089
     37 H6          3.2226    -5.0953    93.4858 H          1           0.1181
     38 H7          0.7837    -4.1237    95.0484 H          1           0.1327
     39 H8          2.1177    -3.1070    94.4494 H          1           0.1229
     40 H9          0.1742    -3.0199    92.9114 H          1           0.1436
     41 H10         1.5803    -3.7722    92.1225 H          1           0.1481
     42 H11        -1.5204    -6.1813    93.5467 H          1           0.1379
     43 H12        -0.4033    -5.3880    94.6829 H          1           0.1484
     44 H13        -2.1566    -4.0222    91.6850 H          1           0.1418
     45 H14        -3.6499    -2.0680    91.7867 H          1           0.1516
     46 H15        -4.1804    -1.0345    93.9575 H          1           0.1532
     47 H16        -1.7272    -3.9204    95.9268 H          1           0.1400
     48 H17         0.3276    -7.1564    92.3477 H          1           0.1270
     49 H18         1.6673    -6.1204    91.8025 H          1           0.1425
     50 H19         2.2747    -7.3424    93.8722 H          1           0.1252
     51 H20         0.8764    -6.6224    94.7079 H          1           0.1028
     52 H21         4.5953    -7.3374    96.4902 H          1           0.1815
     53 H22         8.0750    -7.3583    97.2655 H          1           0.4314
     54 H23         8.4570    -8.7753    98.7341 H          1           0.1235
     55 H24         9.7079   -10.7002    99.6168 H          1           0.1384
     56 H25         9.4870   -12.9084    98.5553 H          1           0.1392
     57 H26         8.0162   -13.2053    96.6059 H          1           0.1414
     58 H27         6.7482   -11.2958    95.7138 H          1           0.1415
     59 H28         8.2638    -5.1859    95.9474 H          1           0.1964
     60 H29         6.9587    -3.3011    95.0655 H          1           0.2160
@<TRIPOS>BOND
     1    1    2 1
     2    1   34 1
     3    1   35 1
     4    1   36 1
     5    2    3 1
     6    2   18 1
     7    3   17 1
     8    3    4 1
     9    3   37 1
    10    4    5 1
    11    4   38 1
    12    4   39 1
    13    5    6 1
    14    5   40 1
    15    5   41 1
    16    6    7 1
    17    6    8 1
    18    6   16 1
    19    8    9 1
    20    8   42 1
    21    8   43 1
    22    9   15 ar
    23    9   10 ar
    24   10   11 ar
    25   10   44 1
    26   11   12 ar
    27   11   45 1
    28   12   13 ar
    29   12   46 1
    30   13   14 1
    31   13   15 ar
    32   15   47 1
    33   16   17 1
    34   16   48 1
    35   16   49 1
    36   17   50 1
    37   17   51 1
    38   18   32 ar
    39   18   19 ar
    40   19   20 ar
    41   19   52 1
    42   20   21 1
    43   20   30 ar
    44   21   22 am
    45   21   53 1
    46   22   23 2
    47   22   24 1
    48   24   29 ar
    49   24   25 ar
    50   25   26 ar
    51   25   54 1
    52   26   27 ar
    53   26   55 1
    54   27   28 ar
    55   27   56 1
    56   28   29 ar
    57   28   57 1
    58   29   58 1
    59   30   31 ar
    60   30   59 1
    61   31   32 ar
    62   31   60 1
    63   32   33 1
##########                 Name:              T524573
##########          Protonation:                   89
##########               SMILES:   Cc1cc(=[NH2+])[nH]c2c1ccc(c2)C[NH2+]CCc3ccccc3Br
##########            Long Name:   iumylidene-4-methyl-1H-quinolin-7-yl)methyl-[2-(2-bromophenyl)ethyl]ammonium
##########          FlexRecCode: 1
##########               Number:                  507
##########   Ligand Source File: /raidb/db2/rgc/tcams/tcams-0000005.db2.gz
##########           GlobalRank: 13
##########                 Rank:                    1
##########               Setnum:                    7
##########             Matchnum:                 2475
##########                Cloud:                    1
##########        Electrostatic:           -68.053856
##########        Van der Waals:           -23.637590
##########  Ligand Polar Desolv:            22.124878
########## Ligand Apolar Desolv:            -2.642965
##########      Internal Energy:             0.000000
##########      Receptor Energy: 0.0
########## Receptor Desolvation:             0.000000
########## Receptor Hydrophobic:             0.000000
##########         Total Energy: -72.21
##########        Ligand Charge:             2.000000
##########            Arbitrary:    +999.9990
##########     heavy atom count:   23
##########           pose count:    1
##########        Ligand Energy:             0.000000
# num electro vdwattr vdwrepu polsolv apolsol rdesolv rhydroe totalscore fullpol fullapo
#   1    1.22   -0.20    0.00   -0.50   -0.02    0.00    0.00       0.49   -4.20   -0.20
#   2   -1.37   -0.51    0.02    0.16   -0.08    0.00    0.00      -1.78    0.82   -0.42
#   3    4.83   -0.90    0.07   -2.46   -0.15    0.00    0.00       1.39   -7.54   -0.46
#   4  -15.15   -1.41    0.18    8.29   -0.83    0.00    0.00      -8.92   20.89   -2.10
#   5   18.81   -2.41    1.17  -11.42    0.37    0.00    0.00       6.51  -26.47    0.85
#   6  -16.33   -0.11    0.03    6.74    0.22    0.00    0.00      -9.46   17.89    0.59
#   7   -9.62   -0.03    0.00    6.77    0.22    0.00    0.00      -2.67   18.45    0.60
#   8   22.02   -3.09    2.26   -9.24    0.41    0.00    0.00      12.37  -23.19    1.04
#   9   -5.12   -1.82    0.62    1.66   -0.21    0.00    0.00      -4.87    5.43   -0.69
#  10    1.97   -0.67    0.06   -0.94   -0.08    0.00    0.00       0.33   -4.46   -0.40
#  11    0.70   -0.44    0.02   -0.61   -0.07    0.00    0.00      -0.40   -3.58   -0.44
#  12    1.99   -0.51    0.04   -0.76   -0.08    0.00    0.00       0.68   -4.30   -0.44
#  13    2.70   -1.19    0.35   -0.60   -0.09    0.00    0.00       1.17   -2.48   -0.37
#  14   -0.92   -0.60    0.09    0.58   -0.10    0.00    0.00      -0.95    2.41   -0.42
#  15   19.02   -1.63    1.17   -6.41    0.21    0.00    0.00      12.35  -22.39    0.73
#  16  -15.10   -0.02    0.00    3.53    0.09    0.00    0.00     -11.50   21.46    0.57
#  17  -25.15   -0.13    0.03    8.33    0.20    0.00    0.00     -16.72   23.63    0.57
#  18    0.27   -0.61    0.05    0.25   -0.11    0.00    0.00      -0.16    0.87   -0.40
#  19    3.35   -0.91    0.08   -1.81   -0.09    0.00    0.00       0.62   -4.43   -0.21
#  20    2.27   -1.23    0.12   -0.36   -0.13    0.00    0.00       0.67   -0.97   -0.36
#  21    3.39   -1.75    0.37   -1.15   -0.21    0.00    0.00       0.65   -2.52   -0.45
#  22    2.37   -1.80    0.40   -1.25   -0.21    0.00    0.00      -0.49   -2.80   -0.47
#  23    1.57   -1.39    0.21   -1.22   -0.20    0.00    0.00      -1.02   -2.90   -0.47
#  24    1.11   -1.49    0.18   -1.07   -0.19    0.00    0.00      -1.47   -2.60   -0.46
#  25    1.57   -1.22    0.10   -0.96   -0.11    0.00    0.00      -0.61   -2.52   -0.30
#  26    0.76   -4.26    1.05   -0.46   -0.49    0.00    0.00      -3.39   -0.95   -1.02
#  27    4.11   -3.00    2.34   -1.32   -0.15    0.00    0.00       1.99   -3.96   -0.44
#  28   -0.32   -0.06    0.00    0.09   -0.01    0.00    0.00      -0.30    1.91   -0.28
#  29   -1.02   -0.08    0.00    0.17   -0.02    0.00    0.00      -0.95    2.15   -0.28
#  30   -0.55   -0.03    0.00    0.08   -0.01    0.00    0.00      -0.51    2.40   -0.23
#  31   -4.24   -0.23    0.03    1.60   -0.07    0.00    0.00      -2.91    6.46   -0.28
#  32  -23.99   -0.19    0.06    8.97    0.28    0.00    0.00     -14.86   19.01    0.60
#  33   -1.97   -0.05    0.00    0.20   -0.01    0.00    0.00      -1.83    3.69   -0.21
#  34   -2.23   -0.06    0.00    0.35   -0.02    0.00    0.00      -1.97    6.33   -0.28
#  35   -3.09   -0.22    0.03    1.97   -0.06    0.00    0.00      -1.37    9.21   -0.28
#  36   -2.23   -0.07    0.00    0.43   -0.02    0.00    0.00      -1.88    6.96   -0.28
#  37   -3.41   -0.25    0.04    1.78   -0.06    0.00    0.00      -1.90    7.89   -0.28
#  38   -2.49   -0.09    0.00    0.38   -0.02    0.00    0.00      -2.23    4.31   -0.26
#  39   -3.94   -0.45    0.07    1.53   -0.11    0.00    0.00      -2.90    3.48   -0.24
#  40   -2.79   -0.30    0.03    1.85   -0.08    0.00    0.00      -1.28    6.72   -0.28
#  41   -6.52   -0.77    1.06    2.78   -0.12    0.00    0.00      -3.57    6.42   -0.28
#  42   -3.77   -0.66    0.33    1.22   -0.13    0.00    0.00      -3.01    2.59   -0.28
#  43   -2.20   -0.25    0.02    0.35   -0.07    0.00    0.00      -2.15    1.34   -0.28
#  44   -1.19   -0.57    0.26    0.51   -0.11    0.00    0.00      -1.10    1.29   -0.28
#  45   -7.36   -1.38    2.46    4.08   -0.11    0.00    0.00      -2.31   10.11   -0.28

@<TRIPOS>MOLECULE
          T524573        89
   45    47     0     0     0



@<TRIPOS>ATOM
      1 C1         10.0172    -7.8176    88.4102 C.3        1          -0.1478
      2 C2          9.0041    -6.7410    88.1168 C.2        1           0.0828
      3 C3          9.1936    -5.8754    87.0908 C.2        1          -0.2219
      4 C4          8.1691    -4.8472    86.8507 C.cat      1           0.5664
      5 N1          8.0063    -4.3139    85.6634 N.pl3      1          -0.7121
      6 H1          8.5668    -4.5962    84.9238 H          1           0.4563
      7 H2          7.3252    -3.6371    85.5250 H          1           0.4365
      8 N2          7.3817    -4.4630    87.9257 N.pl3      1          -0.6289
      9 C5          6.9995    -5.4544    88.8193 C.ar       1           0.1697
     10 C6          7.7912    -6.6137    88.9325 C.ar       1          -0.0942
     11 C7          7.4153    -7.6237    89.8228 C.ar       1          -0.0407
     12 C8          6.2719    -7.4771    90.5765 C.ar       1          -0.1011
     13 C9          5.4917    -6.3364    90.4589 C.ar       1          -0.0970
     14 C10         4.2445    -6.1950    91.2927 C.3        1           0.0371
     15 N3          4.5776    -5.5407    92.5651 N.4        1          -0.5084
     16 H3          5.2539    -6.0995    93.0637 H          1           0.4311
     17 H4          4.9653    -4.6273    92.3822 H          1           0.4274
     18 C11         3.3618    -5.4030    93.3779 C.3        1          -0.0102
     19 C12         3.7087    -4.7215    94.7031 C.3        1          -0.1095
     20 C13         4.7189    -5.5558    95.4478 C.ar       1          -0.0843
     21 C14         6.0706    -5.3396    95.2553 C.ar       1          -0.1026
     22 C15         6.9972    -6.1044    95.9386 C.ar       1          -0.0955
     23 C16         6.5727    -7.0859    96.8150 C.ar       1          -0.0936
     24 C17         5.2216    -7.3027    97.0081 C.ar       1          -0.0823
     25 C18         4.2937    -6.5339    96.3283 C.ar       1          -0.0874
     26 Br1         2.4448    -6.8254    96.5974 Br         1          -0.0434
     27 C19         5.8544    -5.3219    89.5907 C.ar       1          -0.1136
     28 H5         10.8397    -7.7460    87.6985 H          1           0.1131
     29 H6         10.4006    -7.6896    89.4225 H          1           0.1025
     30 H7          9.5441    -8.7956    88.3217 H          1           0.0949
     31 H8         10.0727    -5.9387    86.4668 H          1           0.1930
     32 H9          7.1092    -3.5401    88.0480 H          1           0.4463
     33 H10         8.0183    -8.5145    89.9190 H          1           0.1634
     34 H11         5.9803    -8.2569    91.2644 H          1           0.1552
     35 H12         3.5139    -5.5914    90.7541 H          1           0.1486
     36 H13         3.8257    -7.1817    91.4903 H          1           0.1525
     37 H14         2.6311    -4.7994    92.8394 H          1           0.1406
     38 H15         2.9431    -6.3898    93.5755 H          1           0.1376
     39 H16         4.1273    -3.7347    94.5056 H          1           0.1036
     40 H17         2.8065    -4.6194    95.3063 H          1           0.1028
     41 H18         6.4027    -4.5733    94.5706 H          1           0.1345
     42 H19         8.0532    -5.9355    95.7878 H          1           0.1395
     43 H20         7.2971    -7.6836    97.3485 H          1           0.1428
     44 H21         4.8900    -8.0694    97.6927 H          1           0.1424
     45 H22         5.2422    -4.4364    89.5041 H          1           0.1540
@<TRIPOS>BOND
     1    1    2 1
     2    1   28 1
     3    1   29 1
     4    1   30 1
     5    2   10 1
     6    2    3 2
     7    3    4 1
     8    3   31 1
     9    4    5 2
    10    4    8 1
    11    5    6 1
    12    5    7 1
    13    8    9 1
    14    8   32 1
    15    9   27 ar
    16    9   10 ar
    17   10   11 ar
    18   11   12 ar
    19   11   33 1
    20   12   13 ar
    21   12   34 1
    22   13   14 1
    23   13   27 ar
    24   14   15 1
    25   14   35 1
    26   14   36 1
    27   15   16 1
    28   15   17 1
    29   15   18 1
    30   18   19 1
    31   18   37 1
    32   18   38 1
    33   19   20 1
    34   19   39 1
    35   19   40 1
    36   20   25 ar
    37   20   21 ar
    38   21   22 ar
    39   21   41 1
    40   22   23 ar
    41   22   42 1
    42   23   24 ar
    43   23   43 1
    44   24   25 ar
    45   24   44 1
    46   25   26 1
    47   27   45 1
##########                 Name:              T526321
##########          Protonation:                   26
##########               SMILES:   c1ccc2c(c1)cccc2CNc3nc([nH+]c(n3)NC4CC[NH2+]CC4)NCCCc5ccc(cc5)O
##########            Long Name:   )-6-(piperidin-1-ium-4-ylamino)-1,3,5-triazin-1-ium-2-yl]amino]propyl]phenol
##########          FlexRecCode: 1
##########               Number:                  325
##########   Ligand Source File: /raidb/db2/rgc/tcams/tcams-0000204.db2.gz
##########           GlobalRank: 14
##########                 Rank:                    1
##########               Setnum:                  175
##########             Matchnum:                 1071
##########                Cloud:                    1
##########        Electrostatic:           -52.851494
##########        Van der Waals:           -31.034243
##########  Ligand Polar Desolv:            16.293240
########## Ligand Apolar Desolv:            -4.564500
##########      Internal Energy:             0.000000
##########      Receptor Energy: 0.0
########## Receptor Desolvation:             0.000000
########## Receptor Hydrophobic:             0.000000
##########         Total Energy: -72.16
##########        Ligand Charge:             2.000000
##########            Arbitrary:    +999.9990
##########     heavy atom count:   36
##########           pose count:    1
##########        Ligand Energy:             0.000000
# num electro vdwattr vdwrepu polsolv apolsol rdesolv rhydroe totalscore fullpol fullapo
#   1    0.66   -0.76    0.07   -1.44    0.34    0.00    0.00      -1.13   -5.08    1.19
#   2   -0.15   -0.74    0.08    0.02   -0.07    0.00    0.00      -0.86    0.11   -0.31
#   3    0.23   -0.70    0.14   -0.50   -0.08    0.00    0.00      -0.92   -2.75   -0.46
#   4    0.15   -0.36    0.01   -0.29   -0.06    0.00    0.00      -0.54   -2.10   -0.45
#   5    0.18   -0.41    0.01   -0.29   -0.06    0.00    0.00      -0.57   -1.77   -0.36
#   6    0.21   -0.27    0.01   -0.36   -0.04    0.00    0.00      -0.45   -2.06   -0.23
#   7    1.31   -0.40    0.02   -1.05   -0.05    0.00    0.00      -0.17   -4.39   -0.22
#   8   -1.12   -0.77    0.25    0.79   -0.09    0.00    0.00      -0.93    3.44   -0.38
#   9   14.59   -1.40    0.36   -6.60    0.49    0.00    0.00       7.44  -23.40    1.74
#  10  -17.25   -1.47    0.50    6.52   -1.30    0.00    0.00     -12.99   24.12   -4.81
#  11   23.84   -2.65    3.16   -6.63    0.28    0.00    0.00      18.01  -23.12    0.99
#  12  -20.71   -0.11    0.02    6.51    0.10    0.00    0.00     -14.18   21.37    0.32
#  13  -21.38   -1.29    0.65    6.01   -1.15    0.00    0.00     -17.16   25.17   -4.80
#  14   23.12   -1.56    0.71   -6.71    0.40    0.00    0.00      15.96  -25.37    1.51
#  15   -2.64   -0.43    0.02    1.03   -0.05    0.00    0.00      -2.08    4.45   -0.22
#  16    3.34   -0.52    0.04   -2.09   -0.06    0.00    0.00       0.71   -8.28   -0.24
#  17    0.09   -0.47    0.02    0.14   -0.13    0.00    0.00      -0.36    0.48   -0.47
#  18   12.93   -1.03    0.11   -9.60    0.34    0.00    0.00       2.75  -24.88    0.89
#  19  -11.05   -0.03    0.00    6.92    0.17    0.00    0.00      -3.99   22.70    0.56
#  20  -13.85   -0.03    0.00    8.13    0.19    0.00    0.00      -5.56   24.23    0.57
#  21    0.07   -0.70    0.04    0.32   -0.19    0.00    0.00      -0.46    0.80   -0.47
#  22    4.12   -0.60    0.03   -2.37   -0.08    0.00    0.00       1.10   -7.13   -0.24
#  23   10.54   -0.63    0.04   -4.63    0.48    0.00    0.00       5.80  -20.37    2.12
#  24   -9.17   -0.82    0.13    4.44   -1.14    0.00    0.00      -6.57   18.75   -4.81
#  25    4.17   -0.96    0.13   -4.12    0.43    0.00    0.00      -0.35  -16.67    1.74
#  26   -0.16   -1.57    1.30    1.41   -0.12    0.00    0.00       0.86    4.52   -0.38
#  27    0.94   -1.31    0.16   -0.55   -0.13    0.00    0.00      -0.89   -1.59   -0.37
#  28    0.87   -1.16    0.08   -0.64   -0.17    0.00    0.00      -1.02   -1.70   -0.45
#  29    2.02   -1.66    0.23   -0.93   -0.23    0.00    0.00      -0.57   -1.90   -0.47
#  30    1.18   -1.91    0.27   -1.01   -0.25    0.00    0.00      -1.73   -1.85   -0.46
#  31    0.69   -1.82    0.54   -0.55   -0.18    0.00    0.00      -1.32   -1.20   -0.40
#  32    1.06   -2.31    0.95   -0.94   -0.25    0.00    0.00      -1.48   -1.73   -0.46
#  33    0.86   -2.20    0.47   -1.02   -0.28    0.00    0.00      -2.16   -1.75   -0.47
#  34    0.72   -1.72    0.18   -1.21   -0.27    0.00    0.00      -2.30   -2.14   -0.47
#  35    0.74   -1.51    0.18   -0.67   -0.20    0.00    0.00      -1.46   -1.50   -0.44
#  36    0.23   -1.48    0.23   -0.38   -0.15    0.00    0.00      -1.56   -1.00   -0.40
#  37    9.95   -1.47    0.68   -4.71    0.47    0.00    0.00       4.91  -19.83    1.96
#  38    0.13   -0.91    0.13   -0.54   -0.12    0.00    0.00      -1.30   -2.05   -0.45
#  39    0.14   -0.96    0.17   -0.72   -0.12    0.00    0.00      -1.49   -2.78   -0.46
#  40   -0.53   -0.02    0.00    1.08    0.25    0.00    0.00       0.78    5.36    1.22
#  41   -0.23   -0.23    0.11    0.18   -0.04    0.00    0.00      -0.20    1.24   -0.28
#  42   -0.21   -0.04    0.00    0.17   -0.01    0.00    0.00      -0.09    4.04   -0.28
#  43   -0.16   -0.04    0.00    0.18   -0.01    0.00    0.00      -0.03    4.71   -0.28
#  44   -0.08   -0.12    0.01    0.65   -0.04    0.00    0.00       0.41    4.30   -0.28
#  45   -1.15   -0.20    0.02    0.40   -0.07    0.00    0.00      -1.00    1.62   -0.28
#  46   -0.91   -0.07    0.00    0.12   -0.02    0.00    0.00      -0.88    1.87   -0.28
#  47   -0.74   -0.09    0.01    0.64   -0.02    0.00    0.00      -0.21    7.19   -0.28
#  48   -0.92   -0.94    1.63    1.64   -0.07    0.00    0.00       1.34    6.54   -0.27
#  49  -12.17   -0.02    0.00    3.60    0.14    0.00    0.00      -8.46   14.50    0.58
#  50  -20.42   -0.05    0.00    4.97    0.17    0.00    0.00     -15.33   16.93    0.58
#  51   -1.33   -0.10    0.00    0.68   -0.02    0.00    0.00      -0.76    7.78   -0.23
#  52   -2.53   -0.37    0.14    1.06   -0.07    0.00    0.00      -1.77    4.11   -0.28
#  53   -1.43   -0.11    0.01    0.53   -0.03    0.00    0.00      -1.03    4.87   -0.28
#  54   -2.98   -0.15    0.01    1.11   -0.04    0.00    0.00      -2.06    7.22   -0.28
#  55   -2.15   -0.12    0.00    1.16   -0.03    0.00    0.00      -1.14    9.56   -0.28
#  56   -3.77   -0.35    0.05    2.41   -0.11    0.00    0.00      -1.77    6.38   -0.28
#  57   -2.28   -0.18    0.01    1.60   -0.05    0.00    0.00      -0.91    8.30   -0.28
#  58   -3.27   -0.16    0.01    0.53   -0.04    0.00    0.00      -2.93    3.67   -0.28
#  59   -3.70   -0.28    0.02    1.40   -0.09    0.00    0.00      -2.65    4.51   -0.28
#  60   -2.84   -0.01    0.00    1.41    0.08    0.00    0.00      -1.37   10.16    0.58
#  61    0.28   -0.72    1.33    0.54   -0.06    0.00    0.00       1.37    2.32   -0.24
#  62    0.52   -1.22    2.37    0.95   -0.09    0.00    0.00       2.54    2.85   -0.27
#  63   -2.03   -0.16    0.01    0.57   -0.04    0.00    0.00      -1.66    3.69   -0.28
#  64   -2.18   -0.59    0.56    0.83   -0.11    0.00    0.00      -1.48    2.14   -0.28
#  65   -2.97   -0.51    0.08    0.72   -0.15    0.00    0.00      -2.83    1.31   -0.28
#  66   -2.08   -0.68    0.56    0.62   -0.14    0.00    0.00      -1.73    1.21   -0.28
#  67   -0.39   -0.69    0.25    0.91   -0.16    0.00    0.00      -0.08    1.58   -0.28
#  68   -1.20   -0.42    0.06    1.35   -0.14    0.00    0.00      -0.35    2.65   -0.28
#  69   -0.43   -0.34    0.06    1.13   -0.07    0.00    0.00       0.35    3.80   -0.23
#  70   -0.08   -0.39    0.18    1.18   -0.08    0.00    0.00       0.82    4.36   -0.28
#  71   -0.09   -0.33    0.17    0.30   -0.06    0.00    0.00       0.00    1.35   -0.28

@<TRIPOS>MOLECULE
          T526321        26
   71    75     0     0     0



@<TRIPOS>ATOM
      1 O1         15.8599    -6.1982    85.6945 O.3        1          -0.4978
      2 C1         14.9633    -6.6913    86.5888 C.ar       1           0.1179
      3 C2         13.9516    -7.5395    86.1626 C.ar       1          -0.1425
      4 C3         13.0417    -8.0399    87.0738 C.ar       1          -0.0967
      5 C4         13.1384    -7.6955    88.4094 C.ar       1          -0.1138
      6 C5         12.1443    -8.2423    89.4011 C.3        1          -0.0670
      7 C6         10.9517    -7.2896    89.5060 C.3        1          -0.1323
      8 C7          9.9423    -7.8449    90.5128 C.3        1           0.0904
      9 N1          8.8004    -6.9326    90.6132 N.pl3      1          -0.6573
     10 C8          7.7556    -7.2261    91.4657 C.ar       1           0.6913
     11 N2          6.7168    -6.4010    91.5526 N.ar       1          -0.6391
     12 H1          6.6930    -5.5928    91.0167 H          1           0.4291
     13 C9          5.7104    -6.6837    92.3737 C.ar       1           0.6949
     14 N3          4.6318    -5.8274    92.4636 N.pl3      1          -0.6703
     15 C10         3.5226    -6.1389    93.3687 C.3        1           0.1184
     16 C11         2.2240    -5.5517    92.8084 C.3        1          -0.1771
     17 C12         1.0850    -5.8117    93.7966 C.3        1          -0.0046
     18 N4          1.3949    -5.1780    95.0837 N.4        1          -0.5091
     19 H2          1.5522    -4.1915    94.9425 H          1           0.4342
     20 H3          0.6192    -5.3067    95.7162 H          1           0.4436
     21 C13         2.5994    -5.7864    95.6612 C.3        1          -0.0033
     22 C14         3.7967    -5.5255    94.7448 C.3        1          -0.1568
     23 N5          5.7425    -7.7915    93.1081 N.ar       1          -0.6059
     24 C15         6.7812    -8.6164    93.0211 C.ar       1           0.6752
     25 N6          6.8148    -9.7663    93.7834 N.pl3      1          -0.6177
     26 C16         5.9726    -9.8790    94.9768 C.3        1           0.1624
     27 C17         6.7279    -9.3642    96.1750 C.ar       1          -0.1349
     28 C18         6.6428    -8.0515    96.5253 C.ar       1          -0.0678
     29 C19         7.3334    -7.5576    97.6300 C.ar       1          -0.1290
     30 C20         8.1138    -8.3731    98.3908 C.ar       1          -0.0710
     31 C21         8.2263    -9.7341    98.0603 C.ar       1          -0.0579
     32 C22         9.0218   -10.6070    98.8223 C.ar       1          -0.0914
     33 C23         9.1066   -11.9194    98.4722 C.ar       1          -0.1169
     34 C24         8.4158   -12.4134    97.3671 C.ar       1          -0.0951
     35 C25         7.6364   -11.5980    96.6058 C.ar       1          -0.1288
     36 C26         7.5191   -10.2378    96.9399 C.ar       1          -0.0310
     37 N7          7.7853    -8.3364    92.1958 N.ar       1          -0.6059
     38 C27        14.1461    -6.8506    88.8367 C.ar       1          -0.0970
     39 C28        15.0617    -6.3519    87.9304 C.ar       1          -0.1428
     40 H4         15.7097    -6.4906    84.7849 H          1           0.3981
     41 H5         13.8753    -7.8083    85.1193 H          1           0.1333
     42 H6         12.2539    -8.7001    86.7426 H          1           0.1255
     43 H7         11.7992    -9.2211    89.0677 H          1           0.0764
     44 H8         12.6198    -8.3379    90.3773 H          1           0.0772
     45 H9         11.2968    -6.3109    89.8394 H          1           0.0888
     46 H10        10.4762    -7.1939    88.5298 H          1           0.0885
     47 H11         9.5972    -8.8235    90.1791 H          1           0.0835
     48 H12        10.4179    -7.9406    91.4889 H          1           0.0848
     49 H13         8.7787    -6.1224    90.0803 H          1           0.4487
     50 H14         4.6080    -5.0192    91.9277 H          1           0.4488
     51 H15         3.4234    -7.2201    93.4648 H          1           0.1026
     52 H16         2.3427    -4.4778    92.6641 H          1           0.1138
     53 H17         1.9928    -6.0245    91.8538 H          1           0.1113
     54 H18         0.1589    -5.3951    93.4005 H          1           0.1488
     55 H19         0.9670    -6.8857    93.9398 H          1           0.1369
     56 H20         2.7913    -5.3512    96.6420 H          1           0.1516
     57 H21         2.4491    -6.8610    95.7648 H          1           0.1388
     58 H22         4.6897    -5.9795    95.1744 H          1           0.1316
     59 H23         3.9481    -4.4510    94.6408 H          1           0.1109
     60 H24         7.3960   -10.5002    93.5290 H          1           0.4359
     61 H25         5.0658    -9.2901    94.8385 H          1           0.1009
     62 H26         5.7065   -10.9238    95.1366 H          1           0.1010
     63 H27         6.0310    -7.3828    95.9379 H          1           0.1278
     64 H28         7.2487    -6.5118    97.8862 H          1           0.1334
     65 H29         8.6440    -7.9761    99.2439 H          1           0.1366
     66 H30         9.5633   -10.2381    99.6807 H          1           0.1349
     67 H31         9.7187   -12.5880    99.0594 H          1           0.1304
     68 H32         8.5007   -13.4592    97.1109 H          1           0.1254
     69 H33         7.1072   -11.9949    95.7521 H          1           0.1187
     70 H34        14.2198    -6.5835    89.8806 H          1           0.1251
     71 H35        15.8508    -5.6950    88.2652 H          1           0.1331
@<TRIPOS>BOND
     1    1    2 1
     2    1   40 1
     3    2   39 ar
     4    2    3 ar
     5    3    4 ar
     6    3   41 1
     7    4    5 ar
     8    4   42 1
     9    5    6 1
    10    5   38 ar
    11    6    7 1
    12    6   43 1
    13    6   44 1
    14    7    8 1
    15    7   45 1
    16    7   46 1
    17    8    9 1
    18    8   47 1
    19    8   48 1
    20    9   10 1
    21    9   49 1
    22   10   37 ar
    23   10   11 ar
    24   11   12 1
    25   11   13 ar
    26   13   14 1
    27   13   23 ar
    28   14   15 1
    29   14   50 1
    30   15   22 1
    31   15   16 1
    32   15   51 1
    33   16   17 1
    34   16   52 1
    35   16   53 1
    36   17   18 1
    37   17   54 1
    38   17   55 1
    39   18   19 1
    40   18   20 1
    41   18   21 1
    42   21   22 1
    43   21   56 1
    44   21   57 1
    45   22   58 1
    46   22   59 1
    47   23   24 ar
    48   24   25 1
    49   24   37 ar
    50   25   26 1
    51   25   60 1
    52   26   27 1
    53   26   61 1
    54   26   62 1
    55   27   36 ar
    56   27   28 ar
    57   28   29 ar
    58   28   63 1
    59   29   30 ar
    60   29   64 1
    61   30   31 ar
    62   30   65 1
    63   31   36 ar
    64   31   32 ar
    65   32   33 ar
    66   32   66 1
    67   33   34 ar
    68   33   67 1
    69   34   35 ar
    70   34   68 1
    71   35   36 ar
    72   35   69 1
    73   38   39 ar
    74   38   70 1
    75   39   71 1
##########                 Name:              T536888
##########          Protonation:                   96
##########               SMILES:   1cc(cc(c1)F)NC(=O)N[C@H]2CC[NH+](C2)CCCCCNC(=O)[C@H]3C[C@H]3c4ccc(c(c4)Cl)Cl
##########            Long Name:   rophenyl)carbamoylamino]pyrrolidin-1-ium-1-yl]pentyl]cyclopropanecarboxamide
##########          FlexRecCode: 1
##########               Number:                   88
##########   Ligand Source File: /raidb/db2/rgc/tcams/tcams-0001726.db2.gz
##########           GlobalRank: 15
##########                 Rank:                    1
##########               Setnum:                  166
##########             Matchnum:                 2020
##########                Cloud:                    1
##########        Electrostatic:           -56.521011
##########        Van der Waals:           -26.167543
##########  Ligand Polar Desolv:            13.558668
########## Ligand Apolar Desolv:            -3.024165
##########      Internal Energy:             0.000000
##########      Receptor Energy: 0.0
########## Receptor Desolvation:             0.000000
########## Receptor Hydrophobic:             0.000000
##########         Total Energy: -72.15
##########        Ligand Charge:             1.000000
##########            Arbitrary:    +999.9990
##########     heavy atom count:   35
##########           pose count:    1
##########        Ligand Energy:             0.000000
# num electro vdwattr vdwrepu polsolv apolsol rdesolv rhydroe totalscore fullpol fullapo
#   1    0.83   -1.32    0.23   -0.29   -0.29    0.00    0.00      -0.83   -0.48   -0.48
#   2   -0.99   -1.67    0.28    0.14   -0.19    0.00    0.00      -2.43    0.25   -0.34
#   3    1.25   -1.58    0.16   -0.56   -0.25    0.00    0.00      -0.98   -1.08   -0.47
#   4    0.38   -1.48    0.21   -0.22   -0.19    0.00    0.00      -1.30   -0.55   -0.47
#   5    0.75   -1.21    0.14   -0.37   -0.13    0.00    0.00      -0.82   -1.10   -0.40
#   6   -1.75   -1.30    0.15    0.66   -0.24    0.00    0.00      -2.48    1.84   -0.68
#   7    9.59   -1.54    0.28   -3.56    0.64    0.00    0.00       5.41   -9.46    1.70
#   8  -10.64   -1.06    0.08    3.49   -0.72    0.00    0.00      -8.86   10.11   -2.09
#   9    4.47   -1.01    0.16   -1.77    0.10    0.00    0.00       1.94   -5.90    0.33
#  10   16.93   -1.27    0.14   -6.23    0.86    0.00    0.00      10.44  -15.35    2.13
#  11   -4.26   -0.72    0.06    1.12   -0.12    0.00    0.00      -3.91    3.11   -0.32
#  12    6.15   -1.64    0.43   -2.19   -0.15    0.00    0.00       2.61   -4.26   -0.29
#  13    0.41   -2.14    1.35    0.23   -0.19    0.00    0.00      -0.34    0.48   -0.40
#  14   18.32   -3.45    8.44   -4.22    0.16    0.00    0.00      19.25  -12.20    0.45
#  15  -31.30   -0.46    0.60    6.68    0.21    0.00    0.00     -24.28   18.01    0.56
#  16    0.31   -0.92    0.20    0.05   -0.09    0.00    0.00      -0.45    0.16   -0.32
#  17    2.94   -0.43    0.03   -0.88   -0.05    0.00    0.00       1.61   -4.14   -0.22
#  18    3.19   -0.89    0.25   -0.77   -0.06    0.00    0.00       1.72   -2.87   -0.22
#  19    1.84   -0.26    0.01   -0.35   -0.03    0.00    0.00       1.21   -2.33   -0.22
#  20   -1.80   -0.35    0.02    0.28   -0.08    0.00    0.00      -1.93    1.53   -0.42
#  21   17.59   -0.90    0.11   -2.33    0.57    0.00    0.00      15.04   -9.47    2.32
#  22   -9.13   -0.54    0.03    0.91   -0.11    0.00    0.00      -8.84    4.91   -0.62
#  23    5.22   -0.21    0.00   -0.30    0.03    0.00    0.00       4.74   -2.91    0.28
#  24    3.10   -0.76    0.15   -0.55   -0.11    0.00    0.00       1.83   -1.96   -0.41
#  25    1.15   -0.70    0.21   -0.36   -0.10    0.00    0.00       0.19   -1.44   -0.41
#  26    0.82   -0.46    0.02   -0.36   -0.11    0.00    0.00      -0.09   -1.24   -0.39
#  27    0.13   -0.42    0.01   -0.02   -0.05    0.00    0.00      -0.35   -0.11   -0.30
#  28    0.46   -0.78    0.07   -0.04   -0.08    0.00    0.00      -0.37   -0.16   -0.29
#  29    0.83   -1.38    0.34   -0.11   -0.13    0.00    0.00      -0.45   -0.38   -0.46
#  30    0.06   -0.86    0.17   -0.02   -0.07    0.00    0.00      -0.72   -0.11   -0.30
#  31    0.13   -2.77    1.11   -0.02   -0.29    0.00    0.00      -1.83   -0.06   -0.95
#  32    0.06   -0.29    0.01   -0.01   -0.04    0.00    0.00      -0.27   -0.11   -0.30
#  33    0.05   -0.29    0.00    0.00   -0.06    0.00    0.00      -0.29   -0.05   -0.95
#  34    0.16   -0.25    0.00   -0.04   -0.04    0.00    0.00      -0.17   -0.40   -0.45
#  35    0.66   -0.81    0.29    0.12   -0.13    0.00    0.00       0.14    0.44   -0.48
#  36    1.90   -1.54    0.28   -0.67   -0.21    0.00    0.00      -0.24   -1.48   -0.46
#  37   -1.49   -0.41    0.06    0.40   -0.14    0.00    0.00      -1.58    0.80   -0.28
#  38   -0.80   -0.37    0.09    0.42   -0.08    0.00    0.00      -0.75    1.42   -0.28
#  39   -0.73   -0.21    0.02    0.18   -0.04    0.00    0.00      -0.77    1.00   -0.22
#  40   -7.05   -0.03    0.00    2.51    0.18    0.00    0.00      -4.39    8.15    0.59
#  41   -9.94   -0.03    0.00    4.53    0.22    0.00    0.00      -5.21   11.63    0.57
#  42   -2.81   -0.16    0.01    0.23   -0.04    0.00    0.00      -2.77    1.57   -0.26
#  43   -4.07   -0.87    0.63    0.35   -0.13    0.00    0.00      -4.10    0.74   -0.28
#  44   -4.59   -0.69    0.31    1.54   -0.15    0.00    0.00      -3.58    2.93   -0.28
#  45   -4.67   -0.38    0.06    1.50   -0.09    0.00    0.00      -3.57    4.24   -0.26
#  46   -7.69   -1.36    1.42    3.39   -0.16    0.00    0.00      -4.41    5.96   -0.28
#  47   -2.82   -0.13    0.01    0.77   -0.04    0.00    0.00      -2.21    5.54   -0.28
#  48   -4.07   -0.62    0.35    1.39   -0.09    0.00    0.00      -3.05    4.18   -0.27
#  49   -1.41   -0.07    0.00    0.21   -0.02    0.00    0.00      -1.29    3.08   -0.25
#  50   -0.96   -0.07    0.00    0.26   -0.02    0.00    0.00      -0.79    3.65   -0.28
#  51   -2.37   -0.46    0.17    0.48   -0.09    0.00    0.00      -2.26    1.56   -0.28
#  52   -3.24   -0.64    0.62    0.30   -0.07    0.00    0.00      -3.03    1.20   -0.28
#  53   -0.92   -0.04    0.00    0.07   -0.01    0.00    0.00      -0.90    1.74   -0.28
#  54   -0.51   -0.05    0.00    0.09   -0.01    0.00    0.00      -0.49    2.00   -0.28
#  55   -0.65   -0.06    0.00    0.02   -0.02    0.00    0.00      -0.70    0.41   -0.28
#  56   -0.89   -0.17    0.02    0.03   -0.05    0.00    0.00      -1.06    0.17   -0.28
#  57  -13.71   -0.03    0.00    2.08    0.16    0.00    0.00     -11.51    7.31    0.57
#  58   -2.99   -0.60    0.40    0.92   -0.09    0.00    0.00      -2.37    2.77   -0.28
#  59   -0.70   -0.60    0.62    0.63   -0.08    0.00    0.00      -0.13    2.24   -0.28
#  60   -0.60   -0.09    0.01    0.10   -0.02    0.00    0.00      -0.60    1.11   -0.22
#  61   -1.33   -0.21    0.01    0.48   -0.08    0.00    0.00      -1.13    1.67   -0.28
#  62   -2.86   -0.18    0.01    0.24   -0.04    0.00    0.00      -2.83    1.13   -0.19
#  63   -2.73   -0.66    0.41    0.26   -0.10    0.00    0.00      -2.83    0.71   -0.28
#  64   -0.15   -0.03    0.00    0.03   -0.01    0.00    0.00      -0.17    0.81   -0.28
#  65   -4.71   -0.31    0.14    1.48   -0.06    0.00    0.00      -3.46    6.75   -0.26
#  66   -2.80   -0.10    0.00    0.57   -0.03    0.00    0.00      -2.36    5.53   -0.26
#  67   -2.04   -0.32    0.04    0.69   -0.10    0.00    0.00      -1.74    1.88   -0.28

@<TRIPOS>MOLECULE
          T536888        96
   67    70     0     0     0



@<TRIPOS>ATOM
      1 F1          9.2325   -12.1414    98.8741 F          1          -0.1317
      2 C1          8.6116   -11.5897    97.8086 C.ar       1           0.1239
      3 C2          8.1388   -12.3979    96.7876 C.ar       1          -0.1617
      4 C3          7.5031   -11.8362    95.6964 C.ar       1          -0.0679
      5 C4          7.3375   -10.4668    95.6203 C.ar       1          -0.1302
      6 C5          7.8099    -9.6529    96.6414 C.ar       1           0.1817
      7 N1          7.6432    -8.2655    96.5659 N.am       1          -0.6769
      8 C6          6.5829    -7.7487    95.9135 C.2        1           0.7106
      9 O1          5.7715    -8.4879    95.3907 O.2        1          -0.5562
     10 N2          6.4224    -6.4125    95.8409 N.am       1          -0.7381
     11 C7          5.2701    -5.8508    95.1318 C.3        1           0.1535
     12 C8          5.3415    -4.3011    95.1103 C.3        1          -0.1602
     13 C9          4.5244    -3.9679    93.8370 C.3        1          -0.0091
     14 N3          4.8675    -5.0390    92.8774 N.4        1          -0.3875
     15 H1          5.6076    -4.7248    92.2680 H          1           0.4283
     16 C10         3.6834    -5.3863    92.0803 C.3        1          -0.0106
     17 C11         4.0431    -6.4948    91.0889 C.3        1          -0.1471
     18 C12         5.1575    -6.0071    90.1610 C.3        1          -0.1154
     19 C13         5.5173    -7.1156    89.1696 C.3        1          -0.1322
     20 C14         6.6317    -6.6280    88.2415 C.3        1           0.1190
     21 N4          7.8125    -6.2817    89.0363 N.am       1          -0.7321
     22 C15         8.7472    -7.2169    89.2971 C.2        1           0.5379
     23 O2          8.6108    -8.3452    88.8737 O.2        1          -0.5140
     24 C16         9.9619    -6.8607    90.1148 C.3        1          -0.1858
     25 C17        10.9359    -7.9885    90.4615 C.3        1          -0.1427
     26 C18        11.3251    -6.9337    89.4239 C.3        1          -0.0807
     27 C19        11.3503    -7.3564    87.9776 C.ar       1          -0.0356
     28 C20        10.6709    -6.6144    87.0289 C.ar       1          -0.0394
     29 C21        10.6933    -7.0011    85.7023 C.ar       1          -0.1060
     30 C22        11.3958    -8.1309    85.3227 C.ar       1          -0.0266
     31 Cl1        11.4245    -8.6166    83.6562 Cl         1          -0.0526
     32 C23        12.0764    -8.8735    86.2724 C.ar       1          -0.0373
     33 Cl2        12.9589   -10.2909    85.7976 Cl         1          -0.0510
     34 C24        12.0569    -8.4824    87.5994 C.ar       1          -0.0896
     35 C25         5.3166    -6.2217    93.6347 C.3        1          -0.0210
     36 C26         8.4429   -10.2185    97.7401 C.ar       1          -0.1811
     37 H2          8.2675   -13.4687    96.8443 H          1           0.1417
     38 H3          7.1355   -12.4687    94.9018 H          1           0.1408
     39 H4          6.8412   -10.0293    94.7666 H          1           0.1407
     40 H5          8.2905    -7.6758    96.9831 H          1           0.4118
     41 H6          7.0698    -5.8229    96.2579 H          1           0.4052
     42 H7          4.3381    -6.1900    95.5842 H          1           0.1308
     43 H8          4.8721    -3.8763    95.9977 H          1           0.1245
     44 H9          6.3719    -3.9591    95.0138 H          1           0.1025
     45 H10         3.4570    -3.9826    94.0565 H          1           0.1378
     46 H11         4.8182    -2.9957    93.4414 H          1           0.1393
     47 H12         2.8895    -5.7338    92.7415 H          1           0.1326
     48 H13         3.3424    -4.5068    91.5341 H          1           0.1330
     49 H14         4.3841    -7.3742    91.6353 H          1           0.0884
     50 H15         3.1646    -6.7525    90.4975 H          1           0.0879
     51 H16         4.8165    -5.1276    89.6146 H          1           0.0786
     52 H17         6.0361    -5.7494    90.7523 H          1           0.0789
     53 H18         5.8582    -7.9950    89.7159 H          1           0.0741
     54 H19         4.6387    -7.3733    88.5781 H          1           0.0741
     55 H20         6.8877    -7.4177    87.5353 H          1           0.0688
     56 H21         6.2907    -5.7484    87.6952 H          1           0.0693
     57 H22         7.9216    -5.3792    89.3750 H          1           0.4010
     58 H23         9.8154    -6.0760    90.8571 H          1           0.1309
     59 H24        11.4301    -7.9461    91.4320 H          1           0.1160
     60 H25        10.6981    -8.9883    90.0981 H          1           0.1055
     61 H26        12.0753    -6.1973    89.7116 H          1           0.1297
     62 H27        10.1223    -5.7326    87.3249 H          1           0.1257
     63 H28        10.1618    -6.4215    84.9619 H          1           0.1367
     64 H29        12.5909    -9.0588    88.3402 H          1           0.1383
     65 H30         6.3361    -6.4803    93.3483 H          1           0.1367
     66 H31         4.6501    -7.0618    93.4399 H          1           0.1447
     67 H32         8.8070    -9.5884    98.5381 H          1           0.1395
@<TRIPOS>BOND
     1    1    2 1
     2    2   36 ar
     3    2    3 ar
     4    3    4 ar
     5    3   37 1
     6    4    5 ar
     7    4   38 1
     8    5    6 ar
     9    5   39 1
    10    6    7 1
    11    6   36 ar
    12    7    8 am
    13    7   40 1
    14    8    9 2
    15    8   10 am
    16   10   11 1
    17   10   41 1
    18   11   35 1
    19   11   12 1
    20   11   42 1
    21   12   13 1
    22   12   43 1
    23   12   44 1
    24   13   14 1
    25   13   45 1
    26   13   46 1
    27   14   15 1
    28   14   16 1
    29   14   35 1
    30   16   17 1
    31   16   47 1
    32   16   48 1
    33   17   18 1
    34   17   49 1
    35   17   50 1
    36   18   19 1
    37   18   51 1
    38   18   52 1
    39   19   20 1
    40   19   53 1
    41   19   54 1
    42   20   21 1
    43   20   55 1
    44   20   56 1
    45   21   22 am
    46   21   57 1
    47   22   23 2
    48   22   24 1
    49   24   26 1
    50   24   25 1
    51   24   58 1
    52   25   26 1
    53   25   59 1
    54   25   60 1
    55   26   27 1
    56   26   61 1
    57   27   34 ar
    58   27   28 ar
    59   28   29 ar
    60   28   62 1
    61   29   30 ar
    62   29   63 1
    63   30   31 1
    64   30   32 ar
    65   32   33 1
    66   32   34 ar
    67   34   64 1
    68   35   65 1
    69   35   66 1
    70   36   67 1
##########                 Name:              T532713
##########          Protonation:                   27
##########               SMILES:   COc1c(ccc(c1)CCNc2nc(nc([nH+]2)NCc3c4c(ccc3)cccc4)N5CC[C@@H](CC5)[NH3+])O
##########            Long Name:   no]-6-(1-naphthylmethylamino)-1,3,5-triazin-5-ium-2-yl]-4-piperidyl]ammonium
##########          FlexRecCode: 1
##########               Number:                   82
##########   Ligand Source File: /raidb/db2/rgc/tcams/tcams-0001007.db2.gz
##########           GlobalRank: 16
##########                 Rank:                    1
##########               Setnum:                  342
##########             Matchnum:                  985
##########                Cloud:                    1
##########        Electrostatic:           -47.642738
##########        Van der Waals:           -36.855358
##########  Ligand Polar Desolv:            16.792154
########## Ligand Apolar Desolv:            -4.384531
##########      Internal Energy:             0.000000
##########      Receptor Energy: 0.0
########## Receptor Desolvation:             0.000000
########## Receptor Hydrophobic:             0.000000
##########         Total Energy: -72.09
##########        Ligand Charge:             2.000000
##########            Arbitrary:    +999.9990
##########     heavy atom count:   37
##########           pose count:    1
##########        Ligand Energy:             0.000000
# num electro vdwattr vdwrepu polsolv apolsol rdesolv rhydroe totalscore fullpol fullapo
#   1   -0.06   -1.01    0.32    0.06    0.01    0.00    0.00      -0.68    0.18    0.03
#   2    0.78   -0.75    0.05   -1.39    0.20    0.00    0.00      -1.10   -4.23    0.62
#   3   -0.38   -1.28    0.21    0.19   -0.11    0.00    0.00      -1.37    0.55   -0.31
#   4    0.73   -0.87    0.10   -0.87   -0.10    0.00    0.00      -1.01   -3.62   -0.40
#   5    0.67   -1.23    0.22   -0.20   -0.11    0.00    0.00      -0.65   -0.63   -0.36
#   6    1.73   -0.57    0.05   -0.66   -0.06    0.00    0.00       0.49   -2.47   -0.23
#   7   -2.73   -1.30    0.49    0.96   -0.11    0.00    0.00      -2.69    3.14   -0.37
#   8   22.90   -2.50    1.71   -6.68    0.53    0.00    0.00      15.96  -21.89    1.73
#   9  -25.28   -2.36    2.76    6.33   -1.33    0.00    0.00     -19.89   22.91   -4.81
#  10   20.22   -2.01    1.06   -6.17    0.29    0.00    0.00      13.39  -21.14    0.99
#  11  -12.78   -0.06    0.01    5.35    0.11    0.00    0.00      -7.38   16.78    0.36
#  12  -16.80   -1.04    0.18    6.02   -1.29    0.00    0.00     -12.93   22.53   -4.81
#  13   11.94   -1.42    0.36   -6.42    0.54    0.00    0.00       5.01  -20.62    1.73
#  14   -1.62   -0.67    0.05    1.43   -0.11    0.00    0.00      -0.92    4.29   -0.33
#  15    1.61   -1.31    0.12   -0.77   -0.15    0.00    0.00      -0.50   -1.95   -0.37
#  16    0.24   -1.47    0.23   -0.44   -0.15    0.00    0.00      -1.60   -1.16   -0.40
#  17    0.53   -1.55    0.24   -0.67   -0.17    0.00    0.00      -1.63   -1.79   -0.44
#  18    0.50   -1.76    0.33   -1.18   -0.22    0.00    0.00      -2.32   -2.56   -0.47
#  19    0.89   -1.76    0.19   -1.15   -0.27    0.00    0.00      -2.09   -2.03   -0.47
#  20    0.71   -1.90    0.39   -1.17   -0.26    0.00    0.00      -2.23   -2.06   -0.46
#  21    0.62   -1.87    0.67   -0.70   -0.19    0.00    0.00      -1.48   -1.46   -0.40
#  22    1.09   -2.45    0.77   -1.26   -0.26    0.00    0.00      -2.10   -2.26   -0.46
#  23    2.58   -2.46    0.45   -1.39   -0.28    0.00    0.00      -1.09   -2.35   -0.47
#  24    0.99   -1.77    0.23   -0.98   -0.23    0.00    0.00      -1.76   -1.91   -0.45
#  25   12.40   -0.65    0.04   -4.37    0.41    0.00    0.00       7.83  -19.73    1.84
#  26  -15.55   -0.66    0.07    4.12   -0.96    0.00    0.00     -12.99   20.09   -4.68
#  27   18.91   -1.27    0.44   -4.81    0.44    0.00    0.00      13.71  -20.07    1.84
#  28    8.71   -0.48    0.01   -3.40    0.32    0.00    0.00       5.17  -17.73    1.68
#  29   -1.75   -0.66    0.15    0.81   -0.12    0.00    0.00      -1.56    3.34   -0.48
#  30    2.50   -0.94    0.33   -1.76   -0.07    0.00    0.00       0.06   -6.10   -0.24
#  31   -0.38   -0.47    0.02    0.78   -0.08    0.00    0.00      -0.13    2.87   -0.29
#  32   16.32   -1.09    0.16  -11.18    0.28    0.00    0.00       4.50  -29.80    0.74
#  33  -10.28   -0.02    0.00    5.35    0.13    0.00    0.00      -4.82   23.22    0.58
#  34  -14.77   -0.04    0.00    7.66    0.19    0.00    0.00      -6.96   23.07    0.58
#  35  -11.82   -0.02    0.00    6.29    0.16    0.00    0.00      -5.39   22.35    0.58
#  36    2.56   -0.44    0.02   -1.56   -0.06    0.00    0.00       0.51   -6.03   -0.24
#  37   -0.95   -0.39    0.03    0.60   -0.09    0.00    0.00      -0.80    3.26   -0.48
#  38    2.67   -2.90    2.06   -1.14   -0.20    0.00    0.00       0.49   -2.62   -0.46
#  39    0.77   -2.77    1.09   -1.02   -0.22    0.00    0.00      -2.15   -2.09   -0.46
#  40   -0.37   -2.12    0.53   -0.13   -0.14    0.00    0.00      -2.24   -0.28   -0.31
#  41    1.74   -3.42    4.89   -2.55    0.44    0.00    0.00       1.11   -4.66    0.81
#  42   -0.11   -0.16    0.01    0.34   -0.05    0.00    0.00       0.03    1.92   -0.27
#  43   -0.17   -0.65    0.45    0.53   -0.10    0.00    0.00       0.06    1.43   -0.27
#  44   -0.30   -0.42    0.34    0.26   -0.05    0.00    0.00      -0.17    1.35   -0.28
#  45   -0.42   -0.08    0.00    0.31   -0.02    0.00    0.00      -0.21    4.07   -0.22
#  46   -1.36   -0.07    0.00    0.24   -0.02    0.00    0.00      -1.21    3.79   -0.28
#  47   -2.51   -0.20    0.02    0.71   -0.06    0.00    0.00      -2.04    3.30   -0.28
#  48   -4.51   -1.34    1.94    1.55   -0.11    0.00    0.00      -2.47    3.94   -0.28
#  49   -1.85   -0.18    0.02    0.75   -0.05    0.00    0.00      -1.31    4.47   -0.27
#  50  -14.09   -0.03    0.00    4.33    0.16    0.00    0.00      -9.63   15.49    0.58
#  51   -8.41   -0.07    0.01    3.72    0.16    0.00    0.00      -4.58   13.17    0.58
#  52   -1.47   -0.18    0.01    0.78   -0.04    0.00    0.00      -0.90    4.43   -0.23
#  53   -0.36   -0.33    0.14    1.25   -0.06    0.00    0.00       0.64    5.59   -0.27
#  54   -0.14   -0.36    0.10    1.31   -0.06    0.00    0.00       0.86    5.17   -0.23
#  55   -0.83   -0.53    0.30    1.00   -0.10    0.00    0.00      -0.16    2.82   -0.28
#  56   -1.24   -0.48    0.09    0.79   -0.15    0.00    0.00      -0.99    1.48   -0.28
#  57   -0.89   -0.48    0.12    0.59   -0.14    0.00    0.00      -0.80    1.15   -0.28
#  58   -2.69   -0.72    0.40    0.67   -0.15    0.00    0.00      -2.48    1.29   -0.28
#  59   -3.26   -0.79    0.23    1.44   -0.17    0.00    0.00      -2.55    2.40   -0.28
#  60   -2.14   -0.50    0.32    1.89   -0.11    0.00    0.00      -0.53    5.02   -0.28
#  61   -2.92   -0.40    0.15    0.80   -0.07    0.00    0.00      -2.44    2.91   -0.24
#  62   -0.72   -0.12    0.01    0.38   -0.03    0.00    0.00      -0.48    3.36   -0.28
#  63   -2.15   -0.31    0.07    0.99   -0.07    0.00    0.00      -1.47    3.80   -0.28
#  64   -0.87   -0.79    1.42    1.55   -0.07    0.00    0.00       1.23    5.88   -0.28
#  65   -1.56   -0.12    0.01    0.86   -0.03    0.00    0.00      -0.85    7.44   -0.28
#  66   -1.95   -0.13    0.00    0.44   -0.03    0.00    0.00      -1.67    3.70   -0.28
#  67   -1.88   -0.19    0.01    1.32   -0.07    0.00    0.00      -0.80    5.56   -0.28
#  68   -0.37   -0.09    0.00    0.32   -0.03    0.00    0.00      -0.16    3.28   -0.28
#  69   -0.16   -0.25    0.10    0.39   -0.04    0.00    0.00       0.05    2.48   -0.24
#  70   -4.93   -0.83    0.72    1.96   -0.12    0.00    0.00      -3.20    4.76   -0.28
#  71   -1.57   -0.63    0.31    0.93   -0.13    0.00    0.00      -1.09    1.95   -0.28
#  72   -1.59   -0.17    0.09    2.47    0.66    0.00    0.00       1.47    4.55    1.22

@<TRIPOS>MOLECULE
          T532713        27
   72    76     0     0     0



@<TRIPOS>ATOM
      1 C1          4.8717    -7.3299    83.1447 C.3        1           0.0242
      2 O1          4.3291    -6.5006    84.1743 O.3        1          -0.3018
      3 C2          5.1997    -5.6992    84.8444 C.ar       1           0.1092
      4 C3          5.8351    -6.1644    85.9845 C.ar       1          -0.1895
      5 C4          6.7202    -5.3487    86.6643 C.ar       1          -0.0749
      6 C5          7.4104    -5.8564    87.9041 C.3        1          -0.0837
      7 C6          6.5604    -5.5259    89.1325 C.3        1           0.0881
      8 N1          7.2313    -6.0195    90.3378 N.pl3      1          -0.6534
      9 C7          6.4857    -6.4143    91.4299 C.ar       1           0.6978
     10 N2          7.0947    -6.8570    92.5257 N.ar       1          -0.6349
     11 H1          8.0632    -6.9024    92.5575 H          1           0.4401
     12 C8          6.3767    -7.2367    93.5777 C.ar       1           0.6954
     13 N3          7.0088    -7.6959    94.7154 N.pl3      1          -0.6462
     14 C9          6.2174    -8.1144    95.8749 C.3        1           0.1367
     15 C10         7.1408    -8.5694    96.9756 C.ar       1          -0.1361
     16 C11         7.5392    -9.9149    97.0524 C.ar       1          -0.0282
     17 C12         7.0934   -10.8626    96.1153 C.ar       1          -0.1341
     18 C13         7.5005   -12.1569    96.2209 C.ar       1          -0.0893
     19 C14         8.3548   -12.5592    97.2460 C.ar       1          -0.1162
     20 C15         8.8063   -11.6694    98.1714 C.ar       1          -0.0884
     21 C16         8.4080   -10.3239    98.0947 C.ar       1          -0.0584
     22 C17         8.8547    -9.3758    99.0311 C.ar       1          -0.0636
     23 C18         8.4483    -8.0813    98.9249 C.ar       1          -0.1314
     24 C19         7.5976    -7.6782    97.8971 C.ar       1          -0.0615
     25 N4          5.0494    -7.1740    93.5343 N.ar       1          -0.6224
     26 C20         4.4404    -6.7318    92.4386 C.ar       1           0.6851
     27 N5          5.1588    -6.3468    91.3883 N.ar       1          -0.6235
     28 N6          3.0625    -6.6671    92.3932 N.pl3      1          -0.5502
     29 C21         2.3873    -5.6554    91.5693 C.3        1           0.1169
     30 C22         1.4011    -4.8810    92.4494 C.3        1          -0.1609
     31 C23         0.4532    -5.8670    93.1359 C.3        1           0.0229
     32 N7         -0.5152    -5.1257    93.9547 N.4        1          -0.6363
     33 H2         -1.0469    -4.5028    93.3654 H          1           0.4411
     34 H3         -1.1402    -5.7757    94.4075 H          1           0.4412
     35 H4         -0.0236    -4.5893    94.6539 H          1           0.4351
     36 C24         1.2584    -6.8129    94.0298 C.3        1          -0.1611
     37 C25         2.2430    -7.6128    93.1634 C.3        1           0.1169
     38 C26         6.9739    -4.0680    86.2092 C.ar       1          -0.1320
     39 C27         6.3430    -3.5975    85.0726 C.ar       1          -0.1030
     40 C28         5.4588    -4.4119    84.3835 C.ar       1           0.0903
     41 O2          4.8418    -3.9527    83.2620 O.3        1          -0.4851
     42 H5          4.0726    -7.9166    82.6917 H          1           0.0536
     43 H6          5.3398    -6.7052    82.3838 H          1           0.0579
     44 H7          5.6168    -8.0003    83.5731 H          1           0.1080
     45 H8          5.6387    -7.1644    86.3422 H          1           0.1335
     46 H9          7.5397    -6.9363    87.8314 H          1           0.0961
     47 H10         8.3858    -5.3791    87.9981 H          1           0.0933
     48 H11         6.4310    -4.4460    89.2051 H          1           0.0914
     49 H12         5.5849    -6.0031    89.0385 H          1           0.0933
     50 H13         8.1995    -6.0687    90.3680 H          1           0.4456
     51 H14         7.9772    -7.7416    94.7471 H          1           0.4462
     52 H15         5.6176    -7.2753    96.2274 H          1           0.0973
     53 H16         5.5604    -8.9359    95.5891 H          1           0.0986
     54 H17         6.4309   -10.5655    95.3158 H          1           0.1160
     55 H18         7.1561   -12.8834    95.4997 H          1           0.1271
     56 H19         8.6628   -13.5925    97.3071 H          1           0.1322
     57 H20         9.4675   -11.9956    98.9608 H          1           0.1366
     58 H21         9.5167    -9.6731    99.8309 H          1           0.1386
     59 H22         8.7929    -7.3548    99.6460 H          1           0.1354
     60 H23         7.2934    -6.6439    97.8333 H          1           0.1285
     61 H24         3.1258    -4.9683    91.1563 H          1           0.1267
     62 H25         1.8473    -6.1451    90.7589 H          1           0.0999
     63 H26         1.9508    -4.3191    93.2044 H          1           0.0966
     64 H27         0.8246    -4.1928    91.8310 H          1           0.1146
     65 H28        -0.0780    -6.4461    92.3805 H          1           0.1500
     66 H29         1.8094    -6.2328    94.7700 H          1           0.0967
     67 H30         0.5804    -7.4999    94.5364 H          1           0.1142
     68 H31         1.6914    -8.2589    92.4803 H          1           0.1004
     69 H32         2.8863    -8.2176    93.8024 H          1           0.1269
     70 H33         7.6663    -3.4338    86.7427 H          1           0.1302
     71 H34         6.5426    -2.5966    84.7194 H          1           0.1426
     72 H35         5.0854    -3.0484    83.0214 H          1           0.3964
@<TRIPOS>BOND
     1    1    2 1
     2    1   42 1
     3    1   43 1
     4    1   44 1
     5    2    3 1
     6    3   40 ar
     7    3    4 ar
     8    4    5 ar
     9    4   45 1
    10    5    6 1
    11    5   38 ar
    12    6    7 1
    13    6   46 1
    14    6   47 1
    15    7    8 1
    16    7   48 1
    17    7   49 1
    18    8    9 1
    19    8   50 1
    20    9   27 ar
    21    9   10 ar
    22   10   11 1
    23   10   12 ar
    24   12   13 1
    25   12   25 ar
    26   13   14 1
    27   13   51 1
    28   14   15 1
    29   14   52 1
    30   14   53 1
    31   15   24 ar
    32   15   16 ar
    33   16   21 ar
    34   16   17 ar
    35   17   18 ar
    36   17   54 1
    37   18   19 ar
    38   18   55 1
    39   19   20 ar
    40   19   56 1
    41   20   21 ar
    42   20   57 1
    43   21   22 ar
    44   22   23 ar
    45   22   58 1
    46   23   24 ar
    47   23   59 1
    48   24   60 1
    49   25   26 ar
    50   26   27 ar
    51   26   28 1
    52   28   37 1
    53   28   29 1
    54   29   30 1
    55   29   61 1
    56   29   62 1
    57   30   31 1
    58   30   63 1
    59   30   64 1
    60   31   32 1
    61   31   36 1
    62   31   65 1
    63   32   33 1
    64   32   34 1
    65   32   35 1
    66   36   37 1
    67   36   66 1
    68   36   67 1
    69   37   68 1
    70   37   69 1
    71   38   39 ar
    72   38   70 1
    73   39   40 ar
    74   39   71 1
    75   40   41 1
    76   41   72 1
##########                 Name:              T541367
##########          Protonation:                  100
##########               SMILES:   1c(ccc(c1)C(=[NH2+])N)/C=C\C(=O)NC[C@@H](O)CNC(=O)/C=C\c2ccc(cc2)C(=[NH2+])N
##########            Long Name:   l]amino]-2-hydroxy-propyl]amino]-3-oxo-prop-1-enyl]phenyl]methylene]ammonium
##########          FlexRecCode: 1
##########               Number:                  359
##########   Ligand Source File: /raidb/db2/rgc/tcams/tcams-0002088.db2.gz
##########           GlobalRank: 17
##########                 Rank:                    1
##########               Setnum:                  219
##########             Matchnum:                  239
##########                Cloud:                    1
##########        Electrostatic:           -48.330029
##########        Van der Waals:           -27.555059
##########  Ligand Polar Desolv:             4.833380
########## Ligand Apolar Desolv:            -0.971271
##########      Internal Energy:             0.000000
##########      Receptor Energy: 0.0
########## Receptor Desolvation:             0.000000
########## Receptor Hydrophobic:             0.000000
##########         Total Energy: -72.02
##########        Ligand Charge:             2.000000
##########            Arbitrary:    +999.9990
##########     heavy atom count:   32
##########           pose count:    1
##########        Ligand Energy:             0.000000
# num electro vdwattr vdwrepu polsolv apolsol rdesolv rhydroe totalscore fullpol fullapo
#   1    1.39   -0.27    0.01   -2.92    0.10    0.00    0.00      -1.70  -24.63    0.86
#   2   -1.41   -0.43    0.01    3.19   -0.36    0.00    0.00       1.01   19.28   -2.17
#   3    3.96   -0.73    0.06   -6.49    0.23    0.00    0.00      -2.97  -24.59    0.86
#   4   -1.28   -0.01    0.00    1.88    0.06    0.00    0.00       0.66   15.20    0.51
#   5   -6.20   -0.02    0.00    4.03    0.15    0.00    0.00      -2.04   16.02    0.59
#   6    1.59   -0.44    0.01   -0.61   -0.07    0.00    0.00       0.48   -3.35   -0.40
#   7    1.33   -0.93    0.11   -0.55   -0.13    0.00    0.00      -0.17   -1.85   -0.44
#   8    1.72   -1.36    0.38   -0.68   -0.10    0.00    0.00      -0.04   -2.17   -0.33
#   9   -0.35   -0.58    0.03   -0.22   -0.06    0.00    0.00      -1.18   -1.10   -0.30
#  10    0.86   -0.79    0.09   -0.18   -0.10    0.00    0.00      -0.13   -0.82   -0.44
#  11    2.64   -0.41    0.02   -0.63   -0.07    0.00    0.00       1.55   -4.07   -0.45
#  12   -7.04   -0.27    0.01    0.95   -0.06    0.00    0.00      -6.42    8.90   -0.59
#  13    7.56   -0.28    0.01   -1.23    0.04    0.00    0.00       6.11   -8.82    0.32
#  14    5.25   -0.28    0.01   -1.43    0.25    0.00    0.00       3.80  -13.33    2.31
#  15   -0.41   -0.36    0.06    0.30   -0.06    0.00    0.00      -0.46    2.06   -0.40
#  16   -0.49   -0.56    0.10    0.51   -0.03    0.00    0.00      -0.47    2.40   -0.12
#  17    0.12   -1.70    1.20   -2.53    0.38    0.00    0.00      -2.54  -11.30    1.68
#  18   -0.37   -0.79    0.17    0.55   -0.11    0.00    0.00      -0.55    2.05   -0.40
#  19    5.37   -1.21    0.23   -3.97    0.68    0.00    0.00       1.10  -13.28    2.28
#  20   -2.86   -1.41    0.18    3.24   -0.22    0.00    0.00      -1.08    8.88   -0.59
#  21   -0.81   -3.07    1.22   -3.81    0.13    0.00    0.00      -6.33   -8.82    0.31
#  22    1.83   -1.53    0.28   -1.68   -0.19    0.00    0.00      -1.29   -4.05   -0.45
#  23    0.69   -1.57    0.19   -0.39   -0.21    0.00    0.00      -1.29   -0.81   -0.44
#  24   -0.26   -1.30    0.12   -0.46   -0.12    0.00    0.00      -2.03   -1.13   -0.30
#  25    1.33   -1.89    0.49   -0.88   -0.14    0.00    0.00      -1.09   -2.10   -0.33
#  26    1.89   -1.49    0.22   -0.79   -0.18    0.00    0.00      -0.35   -1.87   -0.44
#  27    3.83   -1.03    0.07   -1.14   -0.14    0.00    0.00       1.61   -3.33   -0.40
#  28    0.85   -1.19    0.10   -0.66   -0.16    0.00    0.00      -1.06   -1.78   -0.44
#  29    1.09   -1.59    0.25   -1.24   -0.19    0.00    0.00      -1.68   -3.00   -0.45
#  30  -17.49   -1.09    0.07    7.05   -0.80    0.00    0.00     -12.25   19.25   -2.17
#  31   32.24   -2.52    1.16  -10.91    0.38    0.00    0.00      20.36  -24.55    0.86
#  32   18.17   -0.91    0.04   -8.22    0.29    0.00    0.00       9.36  -24.58    0.86
#  33   -8.96   -0.01    0.00    2.47    0.09    0.00    0.00      -6.41   16.10    0.59
#  34  -10.88   -0.01    0.00    2.90    0.10    0.00    0.00      -7.90   15.06    0.51
#  35    1.04   -0.31    0.01   -0.36   -0.05    0.00    0.00       0.32   -3.01   -0.45
#  36    0.42   -0.32    0.01   -0.22   -0.05    0.00    0.00      -0.17   -1.77   -0.44
#  37   -0.62    0.00    0.00    0.73    0.03    0.00    0.00       0.13   16.12    0.59
#  38   -0.80    0.00    0.00    0.55    0.02    0.00    0.00      -0.23   15.09    0.51
#  39   -3.10   -0.28    0.05    1.46   -0.07    0.00    0.00      -1.94    5.13   -0.25
#  40   -5.25   -0.93    1.27    0.65   -0.09    0.00    0.00      -4.36    1.84   -0.27
#  41   -2.39   -0.34    0.12    0.76   -0.06    0.00    0.00      -1.91    3.33   -0.28
#  42   -1.47   -0.06    0.00    0.22   -0.02    0.00    0.00      -1.33    3.27   -0.28
#  43   -2.04    0.00    0.00    0.46    0.03    0.00    0.00      -1.55    8.26    0.56
#  44    0.00   -0.28    0.22    0.22   -0.04    0.00    0.00       0.12    1.58   -0.28
#  45   -0.46   -0.05    0.00    0.06   -0.01    0.00    0.00      -0.46    1.37   -0.28
#  46   -1.55   -0.14    0.01    0.31   -0.04    0.00    0.00      -1.40    2.45   -0.28
#  47   -2.09   -0.01    0.00    1.14    0.16    0.00    0.00      -0.80    8.59    1.22
#  48    0.17   -0.73    0.74    0.35   -0.08    0.00    0.00       0.46    1.31   -0.28
#  49   -0.50   -0.14    0.01    0.20   -0.03    0.00    0.00      -0.47    1.62   -0.28
#  50   -4.49   -0.04    0.00    1.79    0.12    0.00    0.00      -2.62    8.20    0.55
#  51   -1.51   -0.32    0.07    0.90   -0.08    0.00    0.00      -0.93    3.23   -0.28
#  52   -2.80   -0.37    0.05    1.43   -0.12    0.00    0.00      -1.82    3.32   -0.28
#  53   -3.21   -1.04    1.17    0.79   -0.11    0.00    0.00      -2.40    1.83   -0.26
#  54   -5.80   -0.56    0.41    2.14   -0.10    0.00    0.00      -3.92    5.10   -0.25
#  55   -1.65   -0.26    0.03    1.43   -0.06    0.00    0.00      -0.52    5.55   -0.25
#  56   -0.80   -0.77    0.57    1.12   -0.11    0.00    0.00       0.02    2.86   -0.28
#  57  -25.37   -0.11    0.02    6.29    0.21    0.00    0.00     -18.96   15.18    0.51
#  58  -17.69   -0.04    0.00    6.49    0.24    0.00    0.00     -11.01   16.00    0.59
#  59   -0.88   -0.04    0.00    0.15   -0.02    0.00    0.00      -0.78    2.87   -0.28
#  60   -0.38   -0.05    0.00    0.31   -0.01    0.00    0.00      -0.13    5.57   -0.25

@<TRIPOS>MOLECULE
          T541367       100
   60    61     0     0     0



@<TRIPOS>ATOM
      1 N1         11.9113    -8.5636    86.9069 N.pl3      1          -0.7618
      2 C1         11.5929    -7.4632    87.5856 C.cat      1           0.6025
      3 N2         12.5518    -6.6468    88.0177 N.pl3      1          -0.7595
      4 H1         13.4822    -6.8538    87.8382 H          1           0.4465
      5 H2         12.3199    -5.8452    88.5121 H          1           0.4326
      6 C2         10.1732    -7.1476    87.8594 C.ar       1          -0.1602
      7 C3          9.8398    -5.9906    88.5663 C.ar       1          -0.0635
      8 C4          8.5195    -5.6956    88.8215 C.ar       1          -0.0635
      9 C5          7.5120    -6.5556    88.3723 C.ar       1           0.0185
     10 C6          6.0994    -6.2413    88.6441 C.2        1          -0.0486
     11 C7          5.3436    -7.0987    89.3578 C.2        1          -0.1843
     12 C8          5.9819    -8.1567    90.1464 C.2        1           0.5415
     13 O1          7.1942    -8.2608    90.1564 O.2        1          -0.5383
     14 N3          5.2260    -9.0144    90.8602 N.am       1          -0.7162
     15 C9          5.8638   -10.0719    91.6483 C.3        1           0.0929
     16 C10         6.1527    -9.5535    93.0584 C.3        1           0.0816
     17 O2          4.9274    -9.1667    93.6839 O.3        1          -0.5505
     18 C11         6.8188   -10.6579    93.8814 C.3        1           0.0923
     19 N4          7.5161   -10.0626    95.0239 N.am       1          -0.7156
     20 C12         7.1703   -10.4090    96.2797 C.2        1           0.5415
     21 O3          6.2787   -11.2162    96.4645 O.2        1          -0.5385
     22 C13         7.8678    -9.8129    97.4229 C.2        1          -0.1842
     23 C14         7.8458    -8.4780    97.6043 C.2        1          -0.0486
     24 C15         6.8765    -7.6507    96.8665 C.ar       1           0.0174
     25 C16         7.3271    -6.6438    96.0064 C.ar       1          -0.0606
     26 C17         6.4198    -5.8711    95.3173 C.ar       1          -0.0646
     27 C18         5.0504    -6.0916    95.4771 C.ar       1          -0.1599
     28 C19         4.5992    -7.0961    96.3358 C.ar       1          -0.0596
     29 C20         5.5044    -7.8747    97.0208 C.ar       1          -0.1025
     30 C21         4.0762    -5.2598    94.7361 C.cat      1           0.6025
     31 N5          4.5056    -4.3016    93.9175 N.pl3      1          -0.7595
     32 N6          2.7702    -5.4695    94.8881 N.pl3      1          -0.7617
     33 H3          2.4573    -6.1676    95.4847 H          1           0.4319
     34 H4          2.1318    -4.9243    94.4026 H          1           0.4450
     35 C22         7.8475    -7.7146    87.6644 C.ar       1          -0.1024
     36 C23         9.1683    -8.0043    87.4060 C.ar       1          -0.0591
     37 H5         12.8420    -8.7715    86.7292 H          1           0.4320
     38 H6         11.2128    -9.1594    86.5938 H          1           0.4450
     39 H7         10.6178    -5.3269    88.9132 H          1           0.1356
     40 H8          8.2618    -4.8008    89.3685 H          1           0.1355
     41 H9          5.6690    -5.3235    88.2713 H          1           0.1564
     42 H10         4.2676    -7.0063    89.3489 H          1           0.1474
     43 H11         4.2596    -8.9314    90.8523 H          1           0.4108
     44 H12         5.1981   -10.9330    91.7069 H          1           0.0760
     45 H13         6.7984   -10.3670    91.1712 H          1           0.0820
     46 H14         6.8183    -8.6924    92.9997 H          1           0.1175
     47 H15         4.4499    -8.4684    93.2154 H          1           0.3829
     48 H16         6.0587   -11.3518    94.2409 H          1           0.0763
     49 H17         7.5344   -11.1941    93.2581 H          1           0.0816
     50 H18         8.2270    -9.4192    94.8767 H          1           0.4113
     51 H19         8.3996   -10.4439    98.1198 H          1           0.1473
     52 H20         8.5391    -8.0148    98.2908 H          1           0.1562
     53 H21         8.3863    -6.4725    95.8832 H          1           0.1352
     54 H22         6.7674    -5.0937    94.6533 H          1           0.1355
     55 H23         3.5397    -7.2654    96.4586 H          1           0.1390
     56 H24         5.1552    -8.6547    97.6812 H          1           0.1474
     57 H25         5.4572    -4.1487    93.8067 H          1           0.4465
     58 H26         3.8671    -3.7564    93.4319 H          1           0.4326
     59 H27         7.0706    -8.3794    87.3169 H          1           0.1474
     60 H28         9.4275    -8.8969    86.8559 H          1           0.1390
@<TRIPOS>BOND
     1    1    2 1
     2    1   37 1
     3    1   38 1
     4    2    3 2
     5    2    6 1
     6    3    4 1
     7    3    5 1
     8    6   36 ar
     9    6    7 ar
    10    7    8 ar
    11    7   39 1
    12    8    9 ar
    13    8   40 1
    14    9   10 1
    15    9   35 ar
    16   10   11 2
    17   10   41 1
    18   11   12 1
    19   11   42 1
    20   12   13 2
    21   12   14 am
    22   14   15 1
    23   14   43 1
    24   15   16 1
    25   15   44 1
    26   15   45 1
    27   16   17 1
    28   16   18 1
    29   16   46 1
    30   17   47 1
    31   18   19 1
    32   18   48 1
    33   18   49 1
    34   19   20 am
    35   19   50 1
    36   20   21 2
    37   20   22 1
    38   22   23 2
    39   22   51 1
    40   23   24 1
    41   23   52 1
    42   24   29 ar
    43   24   25 ar
    44   25   26 ar
    45   25   53 1
    46   26   27 ar
    47   26   54 1
    48   27   28 ar
    49   27   30 1
    50   28   29 ar
    51   28   55 1
    52   29   56 1
    53   30   31 1
    54   30   32 2
    55   31   57 1
    56   31   58 1
    57   32   33 1
    58   32   34 1
    59   35   36 ar
    60   35   59 1
    61   36   60 1
##########                 Name:              T525318
##########          Protonation:                   89
##########               SMILES:   c1ccc2c(c1)[nH]c(=[NH+]CCC[NH2+]Cc3cc4c(ccc(c4[nH]3)Cl)Cl)[nH]2
##########            Long Name:   dol-2-yl)methyl-[3-(1,3-dihydrobenzimidazol-2-ylideneammonio)propyl]ammonium
##########          FlexRecCode: 1
##########               Number:                    1
##########   Ligand Source File: /raidb/db2/rgc/tcams/tcams-0000119.db2.gz
##########           GlobalRank: 18
##########                 Rank:                    1
##########               Setnum:                   65
##########             Matchnum:                 2148
##########                Cloud:                    1
##########        Electrostatic:           -58.905209
##########        Van der Waals:           -22.681101
##########  Ligand Polar Desolv:            14.059908
########## Ligand Apolar Desolv:            -4.444779
##########      Internal Energy:             0.000000
##########      Receptor Energy: 0.0
########## Receptor Desolvation:             0.000000
########## Receptor Hydrophobic:             0.000000
##########         Total Energy: -71.97
##########        Ligand Charge:             2.000000
##########            Arbitrary:    +999.9990
##########     heavy atom count:   26
##########           pose count:    1
##########        Ligand Energy:             0.000000
# num electro vdwattr vdwrepu polsolv apolsol rdesolv rhydroe totalscore fullpol fullapo
#   1    0.20   -5.18    4.03   -0.62   -0.44    0.00    0.00      -2.01   -1.40   -0.99
#   2    0.13   -1.84    0.47   -0.35   -0.11    0.00    0.00      -1.69   -0.95   -0.29
#   3   -0.71   -1.27    0.25    0.62   -0.23    0.00    0.00      -1.34    2.10   -0.76
#   4    6.62   -1.11    0.14   -5.17    0.34    0.00    0.00       0.83  -17.19    1.12
#   5    0.34   -1.08    0.21    1.14   -0.19    0.00    0.00       0.42    4.20   -0.71
#   6   -2.44   -1.31    0.69    1.54   -0.15    0.00    0.00      -1.67    4.58   -0.44
#   7   20.72   -2.25    4.19   -7.12    0.20    0.00    0.00      15.74  -25.43    0.73
#   8  -26.63   -0.22    0.15    7.19    0.17    0.00    0.00     -19.32   23.55    0.57
#   9  -15.52   -0.02    0.00    4.34    0.10    0.00    0.00     -11.10   23.81    0.57
#  10    0.15   -0.48    0.04    0.07   -0.09    0.00    0.00      -0.31    0.30   -0.40
#  11    3.74   -0.48    0.03   -2.02   -0.06    0.00    0.00       1.22   -8.43   -0.24
#  12   -1.58   -0.36    0.01    0.62   -0.09    0.00    0.00      -1.40    2.91   -0.41
#  13    8.62   -0.64    0.03   -6.05    0.37    0.00    0.00       2.34  -26.52    1.64
#  14   -3.44   -0.01    0.00    2.06    0.06    0.00    0.00      -1.33   21.12    0.57
#  15  -12.42   -0.95    0.08    9.01   -1.65    0.00    0.00      -5.93   27.09   -4.95
#  16   14.82   -1.40    0.15   -8.51    0.47    0.00    0.00       5.53  -21.07    1.16
#  17   -1.96   -2.03    0.38    1.30   -0.38    0.00    0.00      -2.69    2.63   -0.77
#  18    2.10   -4.61    3.25   -1.61   -0.29    0.00    0.00      -1.15   -2.67   -0.48
#  19    1.80   -4.22    1.89   -2.14   -0.31    0.00    0.00      -2.98   -3.28   -0.47
#  20    1.75   -3.04    1.02   -2.19   -0.32    0.00    0.00      -2.78   -3.22   -0.47
#  21    2.00   -1.99    0.29   -1.83   -0.30    0.00    0.00      -1.84   -2.95   -0.48
#  22   -1.93   -1.54    0.20    1.12   -0.39    0.00    0.00      -2.54    2.23   -0.77
#  23   10.58   -1.27    0.17   -7.65    0.45    0.00    0.00       2.28  -20.76    1.21
#  24    1.25   -0.70    0.07   -1.37   -0.12    0.00    0.00      -0.86   -5.98   -0.51
#  25    0.53   -1.05    0.23   -0.65   -0.10    0.00    0.00      -1.04   -2.72   -0.43
#  26   -0.05   -1.49    0.90   -0.08   -0.07    0.00    0.00      -0.79   -0.32   -0.30
#  27    0.09   -1.01    0.30   -0.19   -0.13    0.00    0.00      -0.95   -1.38   -0.99
#  28    0.34   -2.73    1.99   -0.80   -0.15    0.00    0.00      -1.36   -2.40   -0.45
#  29    0.12   -3.22    2.39   -0.79   -0.18    0.00    0.00      -1.68   -1.97   -0.46
#  30   -5.56   -0.01    0.00    2.57    0.10    0.00    0.00      -2.91   15.27    0.59
#  31   -5.08   -0.28    0.04    3.03   -0.08    0.00    0.00      -2.37   10.40   -0.28
#  32   -5.72   -0.97    1.49    3.58   -0.10    0.00    0.00      -1.73    9.63   -0.28
#  33   -1.95   -0.11    0.01    0.97   -0.03    0.00    0.00      -1.11    9.37   -0.28
#  34   -3.57   -0.14    0.00    1.05   -0.03    0.00    0.00      -2.69    9.23   -0.28
#  35   -3.17   -0.29    0.05    1.49   -0.07    0.00    0.00      -1.99    5.95   -0.28
#  36   -2.00   -0.10    0.00    0.69   -0.03    0.00    0.00      -1.45    6.02   -0.28
#  37   -1.03   -0.10    0.00    0.59   -0.03    0.00    0.00      -0.56    6.48   -0.28
#  38   -2.17   -0.12    0.00    0.70   -0.03    0.00    0.00      -1.62    6.45   -0.28
#  39  -12.44   -0.02    0.00    5.26    0.15    0.00    0.00      -7.04   19.65    0.57
#  40   -4.10   -1.71    2.80    2.87   -0.16    0.00    0.00      -0.30    4.89   -0.28
#  41   -3.84   -1.25    0.82    1.91   -0.19    0.00    0.00      -2.55    2.76   -0.28
#  42   -3.75   -1.03    0.99    1.44   -0.16    0.00    0.00      -2.51    2.45   -0.28
#  43   -3.60   -0.65    0.49    1.59   -0.12    0.00    0.00      -2.29    3.83   -0.28
#  44   -6.02   -0.02    0.00    4.64    0.16    0.00    0.00      -1.25   17.42    0.59
#  45   -2.33   -0.08    0.00    0.47   -0.02    0.00    0.00      -1.96    6.25   -0.28
#  46   -1.03   -0.51    0.18    0.53   -0.10    0.00    0.00      -0.92    1.52   -0.28
#  47   -0.79   -1.13    2.95    0.78   -0.12    0.00    0.00       1.68    1.78   -0.28

@<TRIPOS>MOLECULE
          T525318        89
   47    50     0     0     0



@<TRIPOS>ATOM
      1 Cl1         7.1260   -11.0029    97.3654 Cl         1          -0.0473
      2 C1          6.8616   -11.1425    95.6554 C.ar       1          -0.0551
      3 C2          6.7792    -9.9987    94.8655 C.ar       1           0.1425
      4 N1          6.8650    -8.6512    95.1368 N.pl3      1          -0.5814
      5 C3          6.7131    -7.9337    93.9815 C.2        1          -0.0196
      6 C4          6.7489    -6.4302    93.8857 C.3        1           0.0732
      7 N2          5.6438    -5.9673    93.0358 N.4        1          -0.5125
      8 H1          5.6677    -4.9606    92.9716 H          1           0.4295
      9 H2          5.7391    -6.3655    92.1136 H          1           0.4353
     10 C5          4.3649    -6.3902    93.6220 C.3        1          -0.0062
     11 C6          3.2139    -5.9080    92.7368 C.3        1          -0.1685
     12 C7          1.8819    -6.3485    93.3474 C.3        1           0.0996
     13 N3          0.7798    -5.8868    92.4999 N.pl3      1          -0.6567
     14 H3          0.7225    -6.1792    91.5768 H          1           0.4443
     15 C8         -0.1259    -5.0814    92.9874 C.cat      1           0.6647
     16 N4         -0.1539    -4.5932    94.2690 N.pl3      1          -0.5778
     17 C9         -1.2732    -3.7714    94.3970 C.ar       1           0.0769
     18 C10        -1.7824    -3.0324    95.4550 C.ar       1          -0.0848
     19 C11        -2.9378    -2.2944    95.2865 C.ar       1          -0.0740
     20 C12        -3.5904    -2.2897    94.0661 C.ar       1          -0.0734
     21 C13        -3.0913    -3.0227    93.0071 C.ar       1          -0.0835
     22 C14        -1.9308    -3.7662    93.1665 C.ar       1           0.0800
     23 N5         -1.2021    -4.5802    92.3000 N.pl3      1          -0.5768
     24 C15         6.5281    -8.7679    92.9462 C.2        1          -0.1034
     25 C16         6.5646   -10.1307    93.4822 C.ar       1          -0.1112
     26 C17         6.4359   -11.4013    92.9146 C.ar       1           0.0236
     27 Cl2         6.1713   -11.5698    91.2072 Cl         1          -0.0377
     28 C18         6.5196   -12.5110    93.7087 C.ar       1          -0.1140
     29 C19         6.7380   -12.3863    95.0740 C.ar       1          -0.0466
     30 H4          7.0111    -8.2679    96.0158 H          1           0.4234
     31 H5          6.6458    -6.0002    94.8820 H          1           0.1614
     32 H6          7.6979    -6.1163    93.4509 H          1           0.1456
     33 H7          4.3390    -7.4777    93.6914 H          1           0.1452
     34 H8          4.2620    -5.9600    94.6182 H          1           0.1422
     35 H9          3.2399    -4.8205    92.6675 H          1           0.1081
     36 H10         3.3168    -6.3382    91.7406 H          1           0.1100
     37 H11         1.8560    -7.4359    93.4169 H          1           0.1069
     38 H12         1.7790    -5.9182    94.3437 H          1           0.1059
     39 H13         0.4926    -4.7865    94.9657 H          1           0.4541
     40 H14        -1.2762    -3.0343    96.4090 H          1           0.1503
     41 H15        -3.3337    -1.7194    96.1105 H          1           0.1577
     42 H16        -4.4936    -1.7108    93.9414 H          1           0.1579
     43 H17        -3.6036    -3.0172    92.0565 H          1           0.1516
     44 H18        -1.4199    -4.7624    91.3726 H          1           0.4585
     45 H19         6.3801    -8.4874    91.9138 H          1           0.1665
     46 H20         6.4201   -13.4928    93.2696 H          1           0.1567
     47 H21         6.8065   -13.2724    95.6876 H          1           0.1591
@<TRIPOS>BOND
     1    1    2 1
     2    2   29 ar
     3    2    3 ar
     4    3   25 ar
     5    3    4 1
     6    4    5 1
     7    4   30 1
     8    5    6 1
     9    5   24 2
    10    6    7 1
    11    6   31 1
    12    6   32 1
    13    7    8 1
    14    7    9 1
    15    7   10 1
    16   10   11 1
    17   10   33 1
    18   10   34 1
    19   11   12 1
    20   11   35 1
    21   11   36 1
    22   12   13 1
    23   12   37 1
    24   12   38 1
    25   13   14 1
    26   13   15 2
    27   15   23 1
    28   15   16 1
    29   16   17 1
    30   16   39 1
    31   17   22 ar
    32   17   18 ar
    33   18   19 ar
    34   18   40 1
    35   19   20 ar
    36   19   41 1
    37   20   21 ar
    38   20   42 1
    39   21   22 ar
    40   21   43 1
    41   22   23 1
    42   23   44 1
    43   24   25 1
    44   24   45 1
    45   25   26 ar
    46   26   27 1
    47   26   28 ar
    48   28   29 ar
    49   28   46 1
    50   29   47 1
##########                 Name:              T533910
##########          Protonation:                   41
##########               SMILES:   C[NH+]1CCN(CC1)c2cc[nH+]c3c2cc(cc3)NC(=O)Nc4ccc5c(c4)CCC5=O
##########            Long Name:   4-(4-methylpiperazin-4-ium-1-yl)quinolin-1-ium-6-yl]-3-(1-oxoindan-5-yl)urea
##########          FlexRecCode: 1
##########               Number:                   73
##########   Ligand Source File: /raidb/db2/rgc/tcams/tcams-0001158.db2.gz
##########           GlobalRank: 19
##########                 Rank:                    1
##########               Setnum:                  121
##########             Matchnum:                  228
##########                Cloud:                    1
##########        Electrostatic:           -54.660599
##########        Van der Waals:           -31.903305
##########  Ligand Polar Desolv:            17.898834
########## Ligand Apolar Desolv:            -3.258235
##########      Internal Energy:             0.000000
##########      Receptor Energy: 0.0
########## Receptor Desolvation:             0.000000
########## Receptor Hydrophobic:             0.000000
##########         Total Energy: -71.92
##########        Ligand Charge:             2.000000
##########            Arbitrary:    +999.9990
##########     heavy atom count:   31
##########           pose count:    1
##########        Ligand Energy:             0.000000
# num electro vdwattr vdwrepu polsolv apolsol rdesolv rhydroe totalscore fullpol fullapo
#   1    1.02   -0.49    0.06   -0.45   -0.11    0.00    0.00       0.03   -2.04   -0.48
#   2    7.41   -0.42    0.03   -2.97    0.07    0.00    0.00       4.11  -16.61    0.39
#   3   -6.34    0.00    0.00    1.26    0.03    0.00    0.00      -5.06   21.41    0.54
#   4    0.94   -1.21    0.87   -0.22   -0.10    0.00    0.00       0.28   -0.85   -0.40
#   5   -2.80   -0.68    0.10    1.25   -0.13    0.00    0.00      -2.25    4.77   -0.49
#   6   10.02   -0.46    0.01   -5.41    0.22    0.00    0.00       4.38  -29.17    1.17
#   7   -0.70   -0.36    0.04    0.75   -0.08    0.00    0.00      -0.34    4.71   -0.49
#   8    0.24   -0.40    0.04   -0.13   -0.07    0.00    0.00      -0.31   -0.73   -0.40
#   9   -4.97   -0.55    0.01    2.95   -0.12    0.00    0.00      -2.68   13.70   -0.55
#  10    1.29   -0.75    0.02   -0.84   -0.12    0.00    0.00      -0.39   -2.91   -0.40
#  11    2.77   -0.83    0.03   -0.50   -0.14    0.00    0.00       1.33   -1.55   -0.44
#  12   -5.12   -1.73    0.31    1.81   -0.30    0.00    0.00      -5.02    4.05   -0.67
#  13   14.86   -2.92    1.65   -8.44    0.75    0.00    0.00       5.91  -19.03    1.69
#  14  -10.79   -1.60    0.27    6.93   -0.86    0.00    0.00      -6.06   16.25   -2.02
#  15    4.34   -1.49    0.25   -4.25    0.11    0.00    0.00      -1.05  -10.93    0.28
#  16   10.25   -1.94    0.62   -7.66    0.83    0.00    0.00       2.10  -15.59    1.69
#  17   -2.42   -1.59    0.19    2.14   -0.33    0.00    0.00      -2.01    4.40   -0.68
#  18    2.34   -2.24    0.52   -1.20   -0.23    0.00    0.00      -0.81   -2.13   -0.40
#  19    0.41   -2.32    0.95   -0.41   -0.26    0.00    0.00      -1.62   -0.76   -0.48
#  20    1.81   -1.63    0.37   -1.40   -0.21    0.00    0.00      -1.06   -2.91   -0.43
#  21   -3.12   -1.73    0.19    1.33   -0.20    0.00    0.00      -3.53    2.31   -0.34
#  22    1.59   -3.02    0.96   -0.48    0.26    0.00    0.00      -0.69   -0.78    0.43
#  23    1.65   -1.06    0.11   -1.07   -0.15    0.00    0.00      -0.52   -2.09   -0.30
#  24    0.48   -0.91    0.10   -0.47   -0.12    0.00    0.00      -0.91   -1.16   -0.29
#  25    0.15   -1.37    0.17   -0.05   -0.17    0.00    0.00      -1.28   -0.14   -0.43
#  26    1.21   -1.37    0.16   -0.97   -0.17    0.00    0.00      -1.14   -2.62   -0.46
#  27    1.05   -3.19    1.41   -1.69   -0.21    0.00    0.00      -2.64   -3.19   -0.40
#  28    3.25   -2.93    1.18   -1.91   -0.23    0.00    0.00      -0.65   -3.77   -0.46
#  29   -3.57   -1.50    0.31    1.69   -0.30    0.00    0.00      -3.36    4.14   -0.73
#  30   13.83   -1.99    0.83   -6.64    0.38    0.00    0.00       6.41  -16.93    0.96
#  31  -17.44   -0.07    0.01    7.09    0.23    0.00    0.00     -10.18   17.69    0.58
#  32   -4.86   -1.23    0.28    3.25   -0.31    0.00    0.00      -2.89    9.90   -0.96
#  33    2.28   -0.63    0.03   -1.62   -0.11    0.00    0.00      -0.06   -7.00   -0.47
#  34   -3.05   -0.25    0.05    0.98   -0.06    0.00    0.00      -2.31    4.77   -0.28
#  35   -1.67   -0.08    0.00    0.40   -0.02    0.00    0.00      -1.38    5.22   -0.28
#  36   -3.09   -0.18    0.02    1.08   -0.05    0.00    0.00      -2.22    5.73   -0.28
#  37   -5.11   -0.42    0.38    1.38   -0.05    0.00    0.00      -3.82    7.12   -0.24
#  38   -7.38   -1.20    3.00    2.07   -0.08    0.00    0.00      -3.58    7.56   -0.28
#  39   -3.78   -0.41    0.12    1.30   -0.08    0.00    0.00      -2.84    4.48   -0.27
#  40   -1.73   -0.15    0.01    0.82   -0.05    0.00    0.00      -1.10    4.64   -0.28
#  41   -0.08   -0.23    0.07    0.62   -0.04    0.00    0.00       0.34    3.80   -0.27
#  42   -0.36   -0.06    0.00    0.32   -0.02    0.00    0.00      -0.13    4.65   -0.28
#  43   -0.47   -0.18    0.05    0.92   -0.04    0.00    0.00       0.28    6.89   -0.28
#  44   -1.34   -0.13    0.01    0.74   -0.03    0.00    0.00      -0.74    6.53   -0.24
#  45   -3.08   -0.12    0.00    0.96   -0.02    0.00    0.00      -2.25    9.66   -0.17
#  46  -10.08   -0.16    0.03    7.20    0.26    0.00    0.00      -2.76   16.40    0.59
#  47   -6.26   -0.07    0.01    5.44    0.24    0.00    0.00      -0.64   13.45    0.59
#  48   -3.15   -0.60    0.14    1.09   -0.13    0.00    0.00      -2.64    1.92   -0.22
#  49   -2.31   -0.61    0.29    0.25   -0.14    0.00    0.00      -2.51    0.51   -0.28
#  50   -1.35   -0.36    0.06    0.53   -0.10    0.00    0.00      -1.23    1.45   -0.28
#  51   -1.23   -0.49    0.14    0.80   -0.14    0.00    0.00      -0.92    1.59   -0.28
#  52   -0.68   -0.18    0.01    0.41   -0.05    0.00    0.00      -0.49    2.37   -0.28
#  53    0.02   -0.60    0.26    0.94   -0.10    0.00    0.00       0.51    2.64   -0.28
#  54   -0.92   -0.22    0.02    1.04   -0.06    0.00    0.00      -0.13    4.88   -0.28
#  55   -5.04   -1.61    4.01    0.71   -0.12    0.00    0.00      -2.05    1.21   -0.21
#  56   -6.51   -1.24    1.42    2.58   -0.16    0.00    0.00      -3.91    4.42   -0.28
#  57   -5.76   -0.53    0.71    2.79   -0.07    0.00    0.00      -2.86   11.72   -0.28
#  58   -1.34   -0.09    0.00    0.87   -0.03    0.00    0.00      -0.59    8.98   -0.28

@<TRIPOS>MOLECULE
          T533910        41
   58    62     0     0     0



@<TRIPOS>ATOM
      1 C1          6.8357    -7.7637    91.7954 C.3        1          -0.0496
      2 N1          5.3986    -7.5027    91.6384 N.4        1          -0.3846
      3 H1          5.1199    -7.7197    90.6933 H          1           0.4304
      4 C2          5.1272    -6.0861    91.9138 C.3        1          -0.0267
      5 C3          3.6496    -5.7875    91.6394 C.3        1           0.1141
      6 N2          2.8309    -6.7260    92.4224 N.pl3      1          -0.6904
      7 C4          3.1431    -8.1606    92.3316 C.3        1           0.1142
      8 C5          4.6448    -8.3458    92.5748 C.3        1          -0.0269
      9 C6          1.7943    -6.2708    93.2240 C.ar       1           0.3156
     10 C7          2.0169    -5.9235    94.5785 C.ar       1          -0.0616
     11 C8          3.2895    -6.0262    95.1560 C.ar       1          -0.1298
     12 C9          3.4645    -5.6779    96.4780 C.ar       1           0.2226
     13 N3          4.7335    -5.7785    97.0605 N.am       1          -0.6841
     14 C10         5.3586    -6.9715    97.1124 C.2        1           0.7044
     15 O1          4.8205    -7.9602    96.6532 O.2        1          -0.5372
     16 N4          6.5803    -7.0682    97.6733 N.am       1          -0.6654
     17 C11         7.2263    -8.3011    97.7269 C.ar       1           0.1801
     18 C12         8.1035    -8.5822    98.7710 C.ar       1          -0.1352
     19 C13         8.7377    -9.7884    98.8255 C.ar       1          -0.0279
     20 C14         8.5085   -10.7529    97.8283 C.ar       1          -0.1939
     21 C15         9.0683   -12.1026    97.6758 C.2        1           0.4027
     22 O2          9.8610   -12.6330    98.4252 O.2        1          -0.4333
     23 C16         8.4862   -12.7153    96.4251 C.3        1          -0.1747
     24 C17         7.5486   -11.6463    95.8473 C.3        1          -0.0858
     25 C18         7.6268   -10.4644    96.7840 C.ar       1          -0.0211
     26 C19         6.9903    -9.2529    96.7404 C.ar       1          -0.1407
     27 C20         2.3842    -5.2242    97.2418 C.ar       1          -0.0398
     28 C21         1.1411    -5.1168    96.7011 C.ar       1          -0.1055
     29 C22         0.9272    -5.4642    95.3558 C.ar       1           0.1284
     30 N5         -0.2893    -5.3646    94.8063 N.ar       1          -0.4469
     31 H2         -1.0284    -5.0481    95.3491 H          1           0.4545
     32 C23        -0.5080    -5.6834    93.5522 C.ar       1           0.2128
     33 C24         0.5096    -6.1363    92.7229 C.ar       1          -0.1681
     34 H3          7.1381    -7.5297    92.8160 H          1           0.1303
     35 H4          7.0389    -8.8143    91.5880 H          1           0.1305
     36 H5          7.3963    -7.1407    91.0984 H          1           0.1215
     37 H6          5.3542    -5.8688    92.9575 H          1           0.1283
     38 H7          5.7494    -5.4650    91.2694 H          1           0.1501
     39 H8          3.4211    -4.7645    91.9383 H          1           0.1224
     40 H9          3.4408    -5.9172    90.5774 H          1           0.1011
     41 H10         2.5797    -8.7066    93.0882 H          1           0.1224
     42 H11         2.8831    -8.5300    91.3396 H          1           0.1014
     43 H12         4.9109    -9.3911    92.4181 H          1           0.1499
     44 H13         4.8865    -8.0584    93.5981 H          1           0.1292
     45 H14         4.1265    -6.3762    94.5699 H          1           0.1446
     46 H15         5.1629    -4.9895    97.4269 H          1           0.4171
     47 H16         7.0095    -6.2793    98.0398 H          1           0.4146
     48 H17         8.2824    -7.8438    99.5385 H          1           0.1400
     49 H18         9.4179   -10.0032    99.6365 H          1           0.1372
     50 H19         9.2791   -12.9465    95.7138 H          1           0.1142
     51 H20         7.9249   -13.6164    96.6721 H          1           0.1145
     52 H21         7.8802   -11.3565    94.8503 H          1           0.0979
     53 H22         6.5276   -12.0256    95.8075 H          1           0.0981
     54 H23         6.3056    -9.0338    95.9344 H          1           0.1352
     55 H24         2.5395    -4.9557    98.2763 H          1           0.1730
     56 H25         0.3180    -4.7651    97.3054 H          1           0.1691
     57 H26        -1.5066    -5.5865    93.1526 H          1           0.2182
     58 H27         0.3000    -6.3863    91.6935 H          1           0.1884
@<TRIPOS>BOND
     1    1    2 1
     2    1   34 1
     3    1   35 1
     4    1   36 1
     5    2    3 1
     6    2    8 1
     7    2    4 1
     8    4    5 1
     9    4   37 1
    10    4   38 1
    11    5    6 1
    12    5   39 1
    13    5   40 1
    14    6    7 1
    15    6    9 1
    16    7    8 1
    17    7   41 1
    18    7   42 1
    19    8   43 1
    20    8   44 1
    21    9   33 ar
    22    9   10 ar
    23   10   29 ar
    24   10   11 ar
    25   11   12 ar
    26   11   45 1
    27   12   13 1
    28   12   27 ar
    29   13   14 am
    30   13   46 1
    31   14   15 2
    32   14   16 am
    33   16   17 1
    34   16   47 1
    35   17   26 ar
    36   17   18 ar
    37   18   19 ar
    38   18   48 1
    39   19   20 ar
    40   19   49 1
    41   20   25 ar
    42   20   21 1
    43   21   22 2
    44   21   23 1
    45   23   24 1
    46   23   50 1
    47   23   51 1
    48   24   25 1
    49   24   52 1
    50   24   53 1
    51   25   26 ar
    52   26   54 1
    53   27   28 ar
    54   27   55 1
    55   28   29 ar
    56   28   56 1
    57   29   30 ar
    58   30   31 1
    59   30   32 ar
    60   32   33 ar
    61   32   57 1
    62   33   58 1
##########                 Name:              T532045
##########          Protonation:                   95
##########               SMILES:   cc(c(cc1[C@H]2C[C@@H]2C(=O)NCCCCC[NH+]3CC[C@H](C3)NC(=O)Nc4ccc(cc4F)Cl)Cl)Cl
##########            Long Name:   ]pyrrolidin-1-ium-1-yl]pentyl]-2-(3,4-dichlorophenyl)cyclopropanecarboxamide
##########          FlexRecCode: 1
##########               Number:                  321
##########   Ligand Source File: /raidb/db2/rgc/tcams/tcams-0000970.db2.gz
##########           GlobalRank: 20
##########                 Rank:                    1
##########               Setnum:                   96
##########             Matchnum:                 3849
##########                Cloud:                    1
##########        Electrostatic:           -46.794136
##########        Van der Waals:           -31.088345
##########  Ligand Polar Desolv:             9.613604
########## Ligand Apolar Desolv:            -3.637176
##########      Internal Energy:             0.000000
##########      Receptor Energy: 0.0
########## Receptor Desolvation:             0.000000
########## Receptor Hydrophobic:             0.000000
##########         Total Energy: -71.91
##########        Ligand Charge:             1.000000
##########            Arbitrary:    +999.9990
##########     heavy atom count:   36
##########           pose count:    1
##########        Ligand Energy:             0.000000
# num electro vdwattr vdwrepu polsolv apolsol rdesolv rhydroe totalscore fullpol fullapo
#   1    2.21   -1.18    0.22   -0.59   -0.26    0.00    0.00       0.40   -1.06   -0.47
#   2   -0.92   -1.84    0.64    0.19   -0.16    0.00    0.00      -2.09    0.41   -0.34
#   3    0.99   -1.75    0.35   -0.49   -0.25    0.00    0.00      -1.16   -0.90   -0.46
#   4    0.17   -1.59    0.16   -0.20   -0.16    0.00    0.00      -1.62   -0.38   -0.30
#   5    0.55   -6.11    3.68   -0.24   -0.57    0.00    0.00      -2.69   -0.42   -0.99
#   6    0.40   -1.71    0.30   -0.30   -0.19    0.00    0.00      -1.50   -0.71   -0.46
#   7    0.39   -1.51    0.24   -0.31   -0.15    0.00    0.00      -1.34   -0.86   -0.41
#   8   -1.19   -1.47    0.22    0.57   -0.26    0.00    0.00      -2.14    1.49   -0.69
#   9    8.85   -1.34    0.10   -3.98    0.73    0.00    0.00       4.37   -9.19    1.69
#  10  -11.72   -1.20    0.13    3.83   -0.76    0.00    0.00      -9.73   10.53   -2.10
#  11    8.29   -1.00    0.12   -2.07    0.10    0.00    0.00       5.44   -6.75    0.32
#  12   16.61   -1.55    0.32   -6.64    0.92    0.00    0.00       9.66  -15.38    2.14
#  13   -5.26   -1.15    0.31    1.38   -0.14    0.00    0.00      -4.87    3.14   -0.33
#  14    6.22   -2.17    0.85   -2.39   -0.16    0.00    0.00       2.36   -4.27   -0.28
#  15    0.51   -1.67    0.34    0.15   -0.23    0.00    0.00      -0.90    0.30   -0.45
#  16   14.53   -1.44    0.52   -4.68    0.17    0.00    0.00       9.10  -12.39    0.45
#  17  -22.65   -0.08    0.01    5.62    0.18    0.00    0.00     -16.92   17.25    0.56
#  18    0.23   -0.65    0.06    0.08   -0.10    0.00    0.00      -0.38    0.27   -0.32
#  19    2.55   -0.39    0.02   -0.90   -0.04    0.00    0.00       1.24   -4.31   -0.21
#  20    2.47   -0.76    0.13   -0.80   -0.06    0.00    0.00       0.98   -2.90   -0.22
#  21    1.29   -0.30    0.01   -0.45   -0.04    0.00    0.00       0.52   -2.39   -0.22
#  22   -0.63   -0.49    0.05    0.33   -0.10    0.00    0.00      -0.84    1.44   -0.42
#  23   14.08   -1.13    0.19   -2.37    0.62    0.00    0.00      11.38   -8.93    2.32
#  24   -9.04   -0.50    0.03    0.75   -0.11    0.00    0.00      -8.87    4.35   -0.64
#  25    4.78   -0.18    0.00   -0.16    0.03    0.00    0.00       4.47   -1.83    0.38
#  26    4.03   -0.49    0.05   -0.37   -0.08    0.00    0.00       3.13   -1.65   -0.37
#  27    2.68   -0.53    0.06   -0.29   -0.09    0.00    0.00       1.82   -1.28   -0.41
#  28    1.02   -0.23    0.01   -0.13   -0.05    0.00    0.00       0.61   -0.93   -0.37
#  29    0.44   -0.43    0.01   -0.03   -0.07    0.00    0.00      -0.07   -0.20   -0.40
#  30    0.66   -0.45    0.01   -0.14   -0.08    0.00    0.00       0.01   -0.70   -0.42
#  31    0.12   -0.55    0.02   -0.06   -0.07    0.00    0.00      -0.55   -0.26   -0.30
#  32   -0.04   -1.74    0.55   -0.06   -0.23    0.00    0.00      -1.52   -0.26   -0.95
#  33    0.21   -1.12    0.31   -0.08   -0.08    0.00    0.00      -0.76   -0.28   -0.30
#  34    0.19   -3.14    2.01   -0.06   -0.29    0.00    0.00      -1.29   -0.21   -0.95
#  35    1.34   -1.94    1.10   -0.19   -0.15    0.00    0.00       0.15   -0.58   -0.46
#  36    1.30   -0.78    0.06   -0.18   -0.13    0.00    0.00       0.27   -0.67   -0.46
#  37    0.55   -0.63    0.08    0.15   -0.13    0.00    0.00       0.02    0.51   -0.45
#  38   -1.09   -0.41    0.07    0.51   -0.13    0.00    0.00      -1.06    1.06   -0.28
#  39   -0.45   -0.48    0.16    0.45   -0.09    0.00    0.00      -0.39    1.42   -0.28
#  40   -0.39   -0.32    0.09    0.35   -0.04    0.00    0.00      -0.32    1.50   -0.19
#  41   -6.19   -0.02    0.00    2.67    0.21    0.00    0.00      -3.33    7.27    0.57
#  42   -8.16   -0.06    0.01    3.75    0.19    0.00    0.00      -4.27   11.23    0.58
#  43   -5.67   -0.65    0.65    0.84   -0.10    0.00    0.00      -4.94    2.12   -0.26
#  44   -3.28   -1.84    6.45    1.27   -0.14    0.00    0.00       2.47    2.51   -0.28
#  45   -5.79   -1.07    0.76    0.64   -0.17    0.00    0.00      -5.63    1.09   -0.28
#  46   -4.24   -0.51    0.13    2.00   -0.08    0.00    0.00      -2.71    5.25   -0.22
#  47   -5.70   -0.88    0.38    2.83   -0.16    0.00    0.00      -3.53    5.08   -0.28
#  48   -2.98   -0.13    0.00    0.66   -0.03    0.00    0.00      -2.48    5.53   -0.28
#  49   -3.22   -0.38    0.15    1.41   -0.08    0.00    0.00      -2.12    5.01   -0.28
#  50   -1.22   -0.08    0.00    0.22   -0.02    0.00    0.00      -1.09    3.22   -0.23
#  51   -1.00   -0.08    0.00    0.27   -0.02    0.00    0.00      -0.83    3.30   -0.28
#  52   -1.61   -0.61    0.55    0.49   -0.09    0.00    0.00      -1.27    1.58   -0.28
#  53   -2.84   -0.40    0.16    0.40   -0.07    0.00    0.00      -2.75    1.58   -0.28
#  54   -0.71   -0.05    0.00    0.08   -0.01    0.00    0.00      -0.69    1.84   -0.28
#  55   -0.33   -0.06    0.00    0.12   -0.02    0.00    0.00      -0.29    1.86   -0.28
#  56   -0.21   -0.07    0.00    0.03   -0.02    0.00    0.00      -0.27    0.39   -0.28
#  57   -0.21   -0.35    0.12    0.10   -0.07    0.00    0.00      -0.42    0.37   -0.28
#  58  -14.69   -0.05    0.00    2.19    0.18    0.00    0.00     -12.37    7.08    0.57
#  59   -3.84   -0.29    0.07    0.52   -0.07    0.00    0.00      -3.60    2.22   -0.28
#  60   -2.41   -0.36    0.14    0.49   -0.06    0.00    0.00      -2.20    1.83   -0.22
#  61   -1.79   -0.11    0.01    0.12   -0.03    0.00    0.00      -1.80    0.99   -0.28
#  62   -1.09   -0.03    0.00    0.02   -0.01    0.00    0.00      -1.11    0.58   -0.26
#  63   -0.87   -0.10    0.01    0.19   -0.02    0.00    0.00      -0.79    1.88   -0.21
#  64   -3.90   -1.25    1.96    0.44   -0.11    0.00    0.00      -2.85    1.15   -0.28
#  65   -2.72   -0.17    0.01    0.29   -0.06    0.00    0.00      -2.65    1.44   -0.28
#  66   -3.70   -0.14    0.01    0.74   -0.03    0.00    0.00      -3.11    6.08   -0.28
#  67   -2.72   -0.13    0.00    0.66   -0.03    0.00    0.00      -2.21    6.12   -0.26

@<TRIPOS>MOLECULE
          T532045        95
   67    70     0     0     0



@<TRIPOS>ATOM
      1 F1          8.8581    -9.4069    99.0338 F          1          -0.1292
      2 C1          8.3355   -10.1653    98.0454 C.ar       1           0.0848
      3 C2          8.6555   -11.5081    97.9599 C.ar       1          -0.1217
      4 C3          8.1197   -12.2846    96.9477 C.ar       1          -0.0228
      5 Cl1         8.5227   -13.9699    96.8431 Cl         1          -0.0441
      6 C4          7.2629   -11.7205    96.0190 C.ar       1          -0.0945
      7 C5          6.9396   -10.3798    96.0993 C.ar       1          -0.0913
      8 C6          7.4706    -9.5984    97.1161 C.ar       1           0.1306
      9 N1          7.1399    -8.2394    97.2027 N.am       1          -0.6719
     10 C7          6.8464    -7.5447    96.0857 C.2        1           0.7137
     11 O1          6.8687    -8.0972    95.0027 O.2        1          -0.5561
     12 N2          6.5283    -6.2377    96.1689 N.am       1          -0.7335
     13 C8          6.2094    -5.4827    94.9546 C.3        1           0.1515
     14 C9          5.8330    -4.0482    95.3053 C.3        1          -0.1586
     15 C10         4.4086    -3.8669    94.7692 C.3        1          -0.0134
     16 N3          4.3003    -4.8799    93.6903 N.4        1          -0.3870
     17 H1          4.7853    -4.5713    92.8611 H          1           0.4306
     18 C11         2.8920    -5.1700    93.3896 C.3        1          -0.0093
     19 C12         2.8133    -6.2159    92.2755 C.3        1          -0.1483
     20 C13         3.5023    -5.6766    91.0203 C.3        1          -0.1150
     21 C14         3.4238    -6.7224    89.9063 C.3        1          -0.1328
     22 C15         4.1127    -6.1833    88.6512 C.3        1           0.1175
     23 N4          5.5172    -5.8940    88.9511 N.am       1          -0.7314
     24 C16         6.4531    -6.8486    88.7810 C.2        1           0.5460
     25 O2          6.1328    -7.9473    88.3795 O.2        1          -0.5317
     26 C17         7.8978    -6.5510    89.0898 C.3        1          -0.1824
     27 C18         8.5516    -7.3317    90.2317 C.3        1          -0.1410
     28 C19         8.9255    -7.6416    88.7808 C.3        1          -0.0794
     29 C20        10.2853    -7.2012    88.3035 C.ar       1          -0.0426
     30 C21        11.4138    -7.5357    89.0285 C.ar       1          -0.1008
     31 C22        12.6620    -7.1317    88.5908 C.ar       1          -0.0281
     32 Cl2        14.0795    -7.5520    89.5007 Cl         1          -0.0429
     33 C23        12.7805    -6.3922    87.4260 C.ar       1          -0.0330
     34 Cl3        14.3465    -5.8849    86.8748 Cl         1          -0.0420
     35 C24        11.6506    -6.0583    86.7018 C.ar       1          -0.0935
     36 C25        10.4041    -6.4678    87.1378 C.ar       1          -0.0908
     37 C26         4.9686    -6.0632    94.2777 C.3        1          -0.0192
     38 H2          9.3242   -11.9507    98.6833 H          1           0.1551
     39 H3          6.8466   -12.3292    95.2299 H          1           0.1481
     40 H4          6.2711    -9.9408    95.3736 H          1           0.1646
     41 H5          7.1220    -7.7987    98.0665 H          1           0.4152
     42 H6          6.5104    -5.7970    97.0327 H          1           0.4075
     43 H7          7.0565    -5.4943    94.2686 H          1           0.1314
     44 H8          5.8525    -3.9045    96.3856 H          1           0.1029
     45 H9          6.5128    -3.3484    94.8193 H          1           0.1207
     46 H10         3.6771    -4.0636    95.5530 H          1           0.1366
     47 H11         4.2769    -2.8630    94.3655 H          1           0.1374
     48 H12         2.4011    -5.5540    94.2838 H          1           0.1328
     49 H13         2.3938    -4.2562    93.0657 H          1           0.1311
     50 H14         3.3114    -7.1297    92.5994 H          1           0.0887
     51 H15         1.7684    -6.4311    92.0523 H          1           0.0895
     52 H16         3.0042    -4.7627    90.6966 H          1           0.0792
     53 H17         4.5473    -5.4615    91.2435 H          1           0.0784
     54 H18         3.9219    -7.6364    90.2300 H          1           0.0747
     55 H19         2.3788    -6.9377    89.6832 H          1           0.0753
     56 H20         4.0568    -6.9284    87.8575 H          1           0.0699
     57 H21         3.6145    -5.2694    88.3273 H          1           0.0697
     58 H22         5.7734    -5.0153    89.2721 H          1           0.4032
     59 H23         8.2052    -5.5149    88.9474 H          1           0.1284
     60 H24         9.2891    -6.8094    90.8409 H          1           0.1128
     61 H25         7.9367    -8.0606    90.7596 H          1           0.1094
     62 H26         8.5566    -8.5743    88.3542 H          1           0.1346
     63 H27        11.3207    -8.1122    89.9371 H          1           0.1435
     64 H28        11.7421    -5.4812    85.7935 H          1           0.1468
     65 H29         9.5223    -6.2110    86.5695 H          1           0.1417
     66 H30         5.2534    -6.7686    93.4971 H          1           0.1463
     67 H31         4.3214    -6.5429    95.0119 H          1           0.1380
@<TRIPOS>BOND
     1    1    2 1
     2    2    8 ar
     3    2    3 ar
     4    3    4 ar
     5    3   38 1
     6    4    5 1
     7    4    6 ar
     8    6    7 ar
     9    6   39 1
    10    7    8 ar
    11    7   40 1
    12    8    9 1
    13    9   10 am
    14    9   41 1
    15   10   11 2
    16   10   12 am
    17   12   13 1
    18   12   42 1
    19   13   37 1
    20   13   14 1
    21   13   43 1
    22   14   15 1
    23   14   44 1
    24   14   45 1
    25   15   16 1
    26   15   46 1
    27   15   47 1
    28   16   17 1
    29   16   18 1
    30   16   37 1
    31   18   19 1
    32   18   48 1
    33   18   49 1
    34   19   20 1
    35   19   50 1
    36   19   51 1
    37   20   21 1
    38   20   52 1
    39   20   53 1
    40   21   22 1
    41   21   54 1
    42   21   55 1
    43   22   23 1
    44   22   56 1
    45   22   57 1
    46   23   24 am
    47   23   58 1
    48   24   25 2
    49   24   26 1
    50   26   28 1
    51   26   27 1
    52   26   59 1
    53   27   28 1
    54   27   60 1
    55   27   61 1
    56   28   29 1
    57   28   62 1
    58   29   36 ar
    59   29   30 ar
    60   30   31 ar
    61   30   63 1
    62   31   32 1
    63   31   33 ar
    64   33   34 1
    65   33   35 ar
    66   35   36 ar
    67   35   64 1
    68   36   65 1
    69   37   66 1
    70   37   67 1
##########                 Name:              T528705
##########          Protonation:                   43
##########               SMILES:   c1ccc(c(c1)CNc2[nH+]c(nc(n2)N3CC[NH2+]CC3)NCCc4ccc(cc4)O)c5cccc(c5)Cl
##########            Long Name:   hylamino]-4-piperazin-4-ium-1-yl-1,3,5-triazin-1-ium-2-yl]amino]ethyl]phenol
##########          FlexRecCode: 1
##########               Number:                   66
##########   Ligand Source File: /raidb/db2/rgc/tcams/tcams-0000480.db2.gz
##########           GlobalRank: 22
##########                 Rank:                    1
##########               Setnum:                  183
##########             Matchnum:                 4271
##########                Cloud:                    1
##########        Electrostatic:           -59.998718
##########        Van der Waals:           -25.952391
##########  Ligand Polar Desolv:            19.493671
########## Ligand Apolar Desolv:            -5.391380
##########      Internal Energy:             0.000000
##########      Receptor Energy: 0.0
########## Receptor Desolvation:             0.000000
########## Receptor Hydrophobic:             0.000000
##########         Total Energy: -71.85
##########        Ligand Charge:             2.000000
##########            Arbitrary:    +999.9990
##########     heavy atom count:   37
##########           pose count:    1
##########        Ligand Energy:             0.000000
# num electro vdwattr vdwrepu polsolv apolsol rdesolv rhydroe totalscore fullpol fullapo
#   1    1.17   -0.36    0.04   -0.85    0.17    0.00    0.00       0.17   -5.85    1.19
#   2   -0.62   -0.44    0.07    0.05   -0.04    0.00    0.00      -0.98    0.38   -0.31
#   3    1.44   -0.94    0.34   -0.56   -0.09    0.00    0.00       0.19   -2.87   -0.46
#   4    0.67   -0.54    0.04   -0.34   -0.08    0.00    0.00      -0.25   -1.89   -0.46
#   5    0.73   -0.24    0.01   -0.16   -0.04    0.00    0.00       0.29   -1.63   -0.36
#   6    0.37   -0.17    0.00   -0.25   -0.02    0.00    0.00      -0.07   -2.37   -0.23
#   7   -1.04   -0.29    0.01    0.57   -0.07    0.00    0.00      -0.82    3.16   -0.37
#   8    5.61   -0.50    0.03   -4.31    0.34    0.00    0.00       1.17  -21.83    1.73
#   9  -11.02   -0.83    0.12    5.52   -1.15    0.00    0.00      -7.36   23.11   -4.81
#  10    6.66   -0.96    0.25   -4.61    0.41    0.00    0.00       1.75  -20.90    1.84
#  11  -11.60   -1.08    0.21    5.93   -1.26    0.00    0.00      -7.80   21.93   -4.68
#  12   15.47   -1.18    0.15   -6.60    0.59    0.00    0.00       8.44  -20.56    1.84
#  13  -23.09   -1.45    0.33    7.21   -1.53    0.00    0.00     -18.52   22.72   -4.81
#  14   27.39   -2.58    2.32   -8.29    0.68    0.00    0.00      19.52  -20.60    1.68
#  15   -4.21   -1.25    0.20    1.84   -0.15    0.00    0.00      -3.56    4.04   -0.33
#  16    3.14   -1.81    0.59   -0.89   -0.16    0.00    0.00       0.87   -2.00   -0.37
#  17    2.16   -3.65    6.21   -1.03   -0.23    0.00    0.00       3.47   -2.05   -0.45
#  18    2.11   -2.99    2.85   -1.47   -0.24    0.00    0.00       0.27   -2.91   -0.47
#  19    1.30   -1.57    0.22   -1.21   -0.22    0.00    0.00      -1.49   -2.55   -0.47
#  20    1.14   -1.53    0.20   -1.10   -0.19    0.00    0.00      -1.47   -2.61   -0.46
#  21    0.45   -1.18    0.10   -0.26   -0.14    0.00    0.00      -1.03   -0.70   -0.38
#  22    0.52   -1.23    0.18   -0.23   -0.12    0.00    0.00      -0.87   -0.64   -0.33
#  23    1.71   -1.84    0.40   -1.09   -0.23    0.00    0.00      -1.05   -2.20   -0.46
#  24    2.22   -2.12    0.70   -1.13   -0.24    0.00    0.00      -0.57   -2.23   -0.47
#  25    1.65   -1.50    0.24   -1.15   -0.20    0.00    0.00      -0.95   -2.69   -0.46
#  26    0.16   -1.50    0.81   -0.34   -0.09    0.00    0.00      -0.96   -1.07   -0.30
#  27    0.08   -1.96    0.68   -0.46   -0.25    0.00    0.00      -1.90   -1.86   -0.99
#  28    0.51   -1.51    1.03   -0.59   -0.09    0.00    0.00      -0.64   -2.33   -0.35
#  29   18.72   -1.27    0.27   -5.76    0.27    0.00    0.00      12.23  -21.18    0.99
#  30  -15.56   -0.02    0.00    3.18    0.07    0.00    0.00     -12.33   16.24    0.36
#  31   10.55   -0.99    0.08   -6.83    0.58    0.00    0.00       3.38  -20.31    1.71
#  32   -2.32   -1.10    0.19    1.21   -0.20    0.00    0.00      -2.22    2.87   -0.48
#  33    0.53   -1.77    0.72    0.18   -0.25    0.00    0.00      -0.59    0.35   -0.48
#  34   12.30   -1.33    0.13  -12.55    0.49    0.00    0.00      -0.96  -22.63    0.89
#  35  -10.76   -0.03    0.00    8.38    0.21    0.00    0.00      -2.21   22.48    0.56
#  36  -10.57   -0.02    0.00    9.08    0.22    0.00    0.00      -1.30   23.26    0.57
#  37    0.43   -1.10    0.22    0.16   -0.21    0.00    0.00      -0.50    0.36   -0.48
#  38   -1.47   -0.74    0.12    0.91   -0.16    0.00    0.00      -1.34    2.81   -0.48
#  39    0.47   -0.14    0.00   -0.12   -0.03    0.00    0.00       0.19   -1.88   -0.46
#  40    0.60   -0.16    0.00   -0.23   -0.04    0.00    0.00       0.18   -2.89   -0.46
#  41   -0.73    0.00    0.00    0.25    0.05    0.00    0.00      -0.43    6.18    1.22
#  42   -2.29   -0.37    0.19    0.29   -0.06    0.00    0.00      -2.24    1.40   -0.28
#  43   -0.59   -0.14    0.01    0.54   -0.04    0.00    0.00      -0.22    3.96   -0.28
#  44   -0.25   -0.07    0.00    0.26   -0.02    0.00    0.00      -0.08    3.32   -0.28
#  45   -0.26   -0.02    0.00    0.10   -0.01    0.00    0.00      -0.19    3.19   -0.28
#  46   -1.28   -0.05    0.00    0.20   -0.01    0.00    0.00      -1.15    3.89   -0.27
#  47   -1.93   -0.19    0.02    0.78   -0.05    0.00    0.00      -1.37    4.22   -0.27
#  48   -1.60   -0.01    0.00    1.17    0.04    0.00    0.00      -0.39   15.48    0.58
#  49  -27.06   -0.19    0.11    4.37    0.19    0.00    0.00     -22.57   13.56    0.58
#  50   -3.62   -0.70    0.23    1.80   -0.09    0.00    0.00      -2.38    3.57   -0.18
#  51   -2.83   -0.30    0.03    1.44   -0.07    0.00    0.00      -1.72    5.32   -0.26
#  52   -4.03   -0.83    0.71    2.67   -0.16    0.00    0.00      -1.64    4.71   -0.28
#  53   -2.88   -0.86    0.64    1.12   -0.14    0.00    0.00      -2.12    2.28   -0.28
#  54   -2.08   -0.28    0.02    0.58   -0.10    0.00    0.00      -1.86    1.66   -0.28
#  55   -0.64   -0.58    0.23    0.67   -0.10    0.00    0.00      -0.41    1.94   -0.28
#  56   -2.61   -0.64    0.50    1.61   -0.13    0.00    0.00      -1.27    3.49   -0.28
#  57   -5.39   -1.31    4.61    1.95   -0.14    0.00    0.00      -0.29    3.84   -0.28
#  58   -2.56   -0.36    0.08    1.03   -0.10    0.00    0.00      -1.91    2.79   -0.28
#  59   -0.73   -0.21    0.06    0.56   -0.03    0.00    0.00      -0.36    3.85   -0.24
#  60   -3.66   -0.43    0.16    1.76   -0.09    0.00    0.00      -2.27    5.34   -0.28
#  61   -3.68   -0.47    0.20    1.38   -0.08    0.00    0.00      -2.66    4.03   -0.24
#  62   -3.88   -1.23    1.97    3.89   -0.13    0.00    0.00       0.62    8.43   -0.28
#  63   -3.25   -0.75    0.35    2.45   -0.12    0.00    0.00      -1.32    5.59   -0.28
#  64   -3.18   -0.60    0.62    2.83   -0.09    0.00    0.00      -0.42    8.41   -0.28
#  65   -2.50   -0.46    0.12    2.04   -0.10    0.00    0.00      -0.90    5.59   -0.28
#  66   -1.22   -0.16    0.01    0.59   -0.04    0.00    0.00      -0.81    3.84   -0.24
#  67   -2.43   -0.53    0.75    1.17   -0.06    0.00    0.00      -1.10    5.27   -0.28
#  68   -0.48   -0.02    0.00    0.10   -0.01    0.00    0.00      -0.40    4.23   -0.28
#  69   -0.37   -0.02    0.00    0.04   -0.01    0.00    0.00      -0.36    1.54   -0.28

@<TRIPOS>MOLECULE
          T528705        43
   69    73     0     0     0



@<TRIPOS>ATOM
      1 O1          9.7765    -8.6873    86.3236 O.3        1          -0.4958
      2 C1          8.5110    -8.4024    86.7289 C.ar       1           0.1245
      3 C2          7.9475    -7.1697    86.4330 C.ar       1          -0.1428
      4 C3          6.6607    -6.8829    86.8458 C.ar       1          -0.0923
      5 C4          5.9348    -7.8229    87.5536 C.ar       1          -0.1179
      6 C5          4.5314    -7.5071    88.0031 C.3        1          -0.0826
      7 C6          4.5728    -6.8677    89.3925 C.3        1           0.0858
      8 N1          3.2087    -6.5606    89.8294 N.pl3      1          -0.6478
      9 C7          2.9938    -5.9747    91.0604 C.ar       1           0.7004
     10 N2          1.7555    -5.7010    91.4595 N.ar       1          -0.6238
     11 C8          1.5485    -5.1369    92.6450 C.ar       1           0.6924
     12 N3          2.5799    -4.8461    93.4320 N.ar       1          -0.6221
     13 C9          3.8181    -5.1196    93.0331 C.ar       1           0.6993
     14 N4          4.8886    -4.8181    93.8501 N.pl3      1          -0.6384
     15 C10         4.6803    -4.6174    95.2863 C.3        1           0.1278
     16 C11         5.4926    -5.6258    96.0574 C.ar       1          -0.1232
     17 C12         6.7833    -5.3244    96.4432 C.ar       1          -0.0857
     18 C13         7.5298    -6.2488    97.1509 C.ar       1          -0.1086
     19 C14         6.9884    -7.4797    97.4761 C.ar       1          -0.0848
     20 C15         5.6990    -7.7915    97.0954 C.ar       1          -0.0990
     21 C16         4.9403    -6.8615    96.3872 C.ar       1          -0.0277
     22 C17         3.5512    -7.1888    95.9805 C.ar       1          -0.0424
     23 C18         2.4846    -6.8774    96.8218 C.ar       1          -0.0996
     24 C19         1.1945    -7.1833    96.4390 C.ar       1          -0.0970
     25 C20         0.9583    -7.7980    95.2226 C.ar       1          -0.1053
     26 C21         2.0134    -8.1101    94.3829 C.ar       1          -0.0359
     27 Cl1         1.7087    -8.8816    92.8579 Cl         1          -0.0576
     28 C22         3.3085    -7.8031    94.7542 C.ar       1          -0.1118
     29 N5          4.0247    -5.6889    91.8496 N.ar       1          -0.6325
     30 H1          4.9279    -5.8925    91.5602 H          1           0.4414
     31 N6          0.2630    -4.8525    93.0589 N.pl3      1          -0.5679
     32 C23         0.0105    -4.2228    94.3642 C.3        1           0.0921
     33 C24        -0.9117    -3.0177    94.1519 C.3        1          -0.0218
     34 N7         -2.1228    -3.4483    93.4424 N.4        1          -0.5088
     35 H2         -2.5637    -4.1969    93.9557 H          1           0.4334
     36 H3         -2.7621    -2.6712    93.3681 H          1           0.4426
     37 C25        -1.7730    -3.9202    92.0965 C.3        1          -0.0216
     38 C26        -0.8933    -5.1648    92.2046 C.3        1           0.0914
     39 C27         6.4939    -9.0523    87.8495 C.ar       1          -0.0925
     40 C28         7.7784    -9.3461    87.4343 C.ar       1          -0.1428
     41 H4         10.0798    -9.5711    86.5726 H          1           0.3982
     42 H5          8.5144    -6.4350    85.8807 H          1           0.1351
     43 H6          6.2215    -5.9234    86.6156 H          1           0.1277
     44 H7          4.0712    -6.8147    87.2981 H          1           0.0943
     45 H8          3.9472    -8.4264    88.0435 H          1           0.0938
     46 H9          5.0330    -7.5599    90.0975 H          1           0.0933
     47 H10         5.1570    -5.9483    89.3521 H          1           0.0933
     48 H11         2.4563    -6.7689    89.2537 H          1           0.4468
     49 H12         5.7790    -4.7390    93.4734 H          1           0.4461
     50 H13         4.9945    -3.6107    95.5618 H          1           0.1002
     51 H14         3.6238    -4.7457    95.5215 H          1           0.0996
     52 H15         7.2109    -4.3652    96.1916 H          1           0.1319
     53 H16         8.5394    -6.0091    97.4504 H          1           0.1373
     54 H17         7.5759    -8.1980    98.0285 H          1           0.1386
     55 H18         5.2776    -8.7528    97.3492 H          1           0.1356
     56 H19         2.6674    -6.3978    97.7720 H          1           0.1359
     57 H20         0.3676    -6.9425    97.0907 H          1           0.1396
     58 H21        -0.0530    -8.0355    94.9271 H          1           0.1377
     59 H22         4.1310    -8.0423    94.0965 H          1           0.1344
     60 H23        -0.4708    -4.9395    95.0297 H          1           0.1132
     61 H24         0.9531    -3.8906    94.7991 H          1           0.1480
     62 H25        -1.1872    -2.5961    95.1185 H          1           0.1583
     63 H26        -0.3931    -2.2629    93.5606 H          1           0.1387
     64 H27        -2.6834    -4.1636    91.5486 H          1           0.1584
     65 H28        -1.2284    -3.1380    91.5675 H          1           0.1385
     66 H29        -0.5477    -5.4551    91.2124 H          1           0.1480
     67 H30        -1.4673    -5.9782    92.6482 H          1           0.1127
     68 H31         5.9247    -9.7850    88.4022 H          1           0.1283
     69 H32         8.2134   -10.3079    87.6624 H          1           0.1355
@<TRIPOS>BOND
     1    1    2 1
     2    1   41 1
     3    2   40 ar
     4    2    3 ar
     5    3    4 ar
     6    3   42 1
     7    4    5 ar
     8    4   43 1
     9    5    6 1
    10    5   39 ar
    11    6    7 1
    12    6   44 1
    13    6   45 1
    14    7    8 1
    15    7   46 1
    16    7   47 1
    17    8    9 1
    18    8   48 1
    19    9   29 ar
    20    9   10 ar
    21   10   11 ar
    22   11   12 ar
    23   11   31 1
    24   12   13 ar
    25   13   14 1
    26   13   29 ar
    27   14   15 1
    28   14   49 1
    29   15   16 1
    30   15   50 1
    31   15   51 1
    32   16   21 ar
    33   16   17 ar
    34   17   18 ar
    35   17   52 1
    36   18   19 ar
    37   18   53 1
    38   19   20 ar
    39   19   54 1
    40   20   21 ar
    41   20   55 1
    42   21   22 1
    43   22   28 ar
    44   22   23 ar
    45   23   24 ar
    46   23   56 1
    47   24   25 ar
    48   24   57 1
    49   25   26 ar
    50   25   58 1
    51   26   27 1
    52   26   28 ar
    53   28   59 1
    54   29   30 1
    55   31   38 1
    56   31   32 1
    57   32   33 1
    58   32   60 1
    59   32   61 1
    60   33   34 1
    61   33   62 1
    62   33   63 1
    63   34   35 1
    64   34   36 1
    65   34   37 1
    66   37   38 1
    67   37   64 1
    68   37   65 1
    69   38   66 1
    70   38   67 1
    71   39   40 ar
    72   39   68 1
    73   40   69 1
##########                 Name:              T535469
##########          Protonation:                   94
##########               SMILES:   c1cc(ccc1/C=C\C(=O)NCCCCC[NH+]2CCCN(CC2)C(=O)Nc3ccc(cc3)Cl)C(F)(F)F
##########            Long Name:   oromethyl)phenyl]prop-2-enoyl]amino]pentyl]-1,4-diazepan-4-ium-1-carboxamide
##########          FlexRecCode: 1
##########               Number:                  259
##########   Ligand Source File: /raidb/db2/rgc/tcams/tcams-0001372.db2.gz
##########           GlobalRank: 22
##########                 Rank:                    1
##########               Setnum:                  352
##########             Matchnum:                 3605
##########                Cloud:                    1
##########        Electrostatic:           -37.822334
##########        Van der Waals:           -35.993481
##########  Ligand Polar Desolv:             7.028668
########## Ligand Apolar Desolv:            -5.062487
##########      Internal Energy:             0.000000
##########      Receptor Energy: 0.0
########## Receptor Desolvation:             0.000000
########## Receptor Hydrophobic:             0.000000
##########         Total Energy: -71.85
##########        Ligand Charge:             1.000000
##########            Arbitrary:    +999.9990
##########     heavy atom count:   37
##########           pose count:    1
##########        Ligand Energy:             0.000000
# num electro vdwattr vdwrepu polsolv apolsol rdesolv rhydroe totalscore fullpol fullapo
#   1    2.02   -0.69    0.07    0.00   -0.19    0.00    0.00       1.21    0.00   -0.48
#   2   -1.15   -0.93    0.18    0.11   -0.02    0.00    0.00      -1.81    0.33   -0.07
#   3    0.00   -1.07    0.52   -0.02   -0.13    0.00    0.00      -0.70   -0.08   -0.45
#   4    0.44   -2.62    3.58   -0.02   -0.19    0.00    0.00       1.20   -0.05   -0.45
#   5    0.34   -0.71    0.06   -0.11   -0.10    0.00    0.00      -0.52   -0.42   -0.38
#   6    0.12   -0.43    0.02   -0.07   -0.08    0.00    0.00      -0.44   -0.37   -0.44
#   7    0.14   -0.30    0.01   -0.08   -0.06    0.00    0.00      -0.29   -0.66   -0.45
#   8    0.09   -0.57    0.06   -0.05   -0.06    0.00    0.00      -0.54   -0.26   -0.32
#   9    0.02   -0.70    0.09   -0.16   -0.11    0.00    0.00      -0.87   -0.60   -0.44
#  10    0.21   -0.92    0.11   -0.74   -0.15    0.00    0.00      -1.49   -2.28   -0.45
#  11   -0.54   -0.84    0.07    1.52   -0.18    0.00    0.00       0.04    4.95   -0.58
#  12    0.40   -1.84    0.70   -1.04    0.11    0.00    0.00      -1.66   -2.77    0.29
#  13    0.94   -0.51    0.02   -1.97    0.46    0.00    0.00      -1.05   -9.96    2.33
#  14   -0.21   -0.66    0.14    0.38   -0.10    0.00    0.00      -0.46    1.56   -0.42
#  15    0.67   -0.49    0.09   -0.52   -0.05    0.00    0.00      -0.30   -2.49   -0.22
#  16    2.12   -0.91    0.20   -0.91   -0.07    0.00    0.00       0.43   -3.07   -0.22
#  17    4.07   -0.74    0.14   -1.16   -0.05    0.00    0.00       2.25   -4.43   -0.21
#  18    0.47   -0.74    0.11   -0.01   -0.10    0.00    0.00      -0.27   -0.04   -0.34
#  19    9.18   -0.66    0.03   -3.35    0.05    0.00    0.00       5.26  -11.76    0.19
#  20   -8.15   -0.01    0.00    1.65    0.04    0.00    0.00      -6.47   17.59    0.46
#  21    0.19   -0.58    0.03    0.08   -0.13    0.00    0.00      -0.42    0.24   -0.38
#  22    3.25   -0.76    0.05   -1.62   -0.10    0.00    0.00       0.81   -3.75   -0.24
#  23   -2.47   -1.30    0.28    1.04   -0.22    0.00    0.00      -2.66    2.20   -0.46
#  24   12.83   -1.27    0.13   -5.09    0.55    0.00    0.00       7.15  -13.37    1.44
#  25   -2.72   -0.96    0.13    0.74   -0.17    0.00    0.00      -2.98    1.73   -0.40
#  26    2.12   -1.07    0.18   -0.62   -0.16    0.00    0.00       0.46   -1.47   -0.37
#  27   -8.86   -1.27    0.12    3.99   -0.75    0.00    0.00      -6.76   10.55   -1.99
#  28    1.88   -2.60    1.15   -2.21    0.13    0.00    0.00      -1.65   -5.31    0.32
#  29   10.06   -1.14    0.07   -4.46    0.65    0.00    0.00       5.18  -11.40    1.65
#  30   -1.59   -1.31    0.13    0.82   -0.25    0.00    0.00      -2.21    2.15   -0.67
#  31    1.37   -1.68    0.28   -0.52   -0.20    0.00    0.00      -0.76   -1.02   -0.40
#  32    0.99   -1.91    0.68   -0.35   -0.23    0.00    0.00      -0.81   -0.71   -0.46
#  33    0.32   -1.58    0.28   -0.29   -0.15    0.00    0.00      -1.42   -0.57   -0.30
#  34    0.39   -4.53    1.35   -0.29   -0.60    0.00    0.00      -3.68   -0.49   -0.99
#  35    0.42   -1.53    0.21   -0.40   -0.18    0.00    0.00      -1.49   -1.00   -0.46
#  36    0.63   -1.47    0.23   -0.51   -0.16    0.00    0.00      -1.28   -1.43   -0.46
#  37    0.14   -1.20    0.43   -0.06   -0.08    0.00    0.00      -0.77   -0.21   -0.31
#  38    0.25   -1.18    0.45   -0.09   -0.11    0.00    0.00      -0.68   -0.35   -0.44
#  39   -0.13   -0.09    0.01    0.06   -0.03    0.00    0.00      -0.18    0.60   -0.27
#  40   -0.16   -0.03    0.00    0.05   -0.01    0.00    0.00      -0.15    1.53   -0.28
#  41   -0.20   -0.17    0.04    0.51   -0.05    0.00    0.00       0.13    2.62   -0.28
#  42   -0.09   -0.30    0.05    1.13   -0.09    0.00    0.00       0.69    3.49   -0.28
#  43   -0.50    0.00    0.00    0.37    0.03    0.00    0.00      -0.10    7.91    0.56
#  44   -0.14   -0.13    0.01    0.04   -0.03    0.00    0.00      -0.25    0.35   -0.28
#  45   -0.12   -0.61    0.49    0.07   -0.09    0.00    0.00      -0.25    0.23   -0.28
#  46   -0.38   -0.20    0.06    0.30   -0.04    0.00    0.00      -0.25    2.11   -0.28
#  47   -0.35   -0.05    0.00    0.12   -0.01    0.00    0.00      -0.30    2.27   -0.28
#  48   -1.28   -0.17    0.01    0.25   -0.05    0.00    0.00      -1.24    1.35   -0.28
#  49   -2.09   -0.80    0.61    0.52   -0.11    0.00    0.00      -1.87    1.35   -0.28
#  50   -1.64   -0.08    0.00    0.33   -0.02    0.00    0.00      -1.42    4.10   -0.28
#  51   -3.96   -0.67    0.76    1.07   -0.06    0.00    0.00      -2.86    4.13   -0.22
#  52   -3.69   -0.61    0.50    1.37   -0.09    0.00    0.00      -2.53    4.12   -0.28
#  53   -2.15   -0.13    0.01    0.67   -0.03    0.00    0.00      -1.64    5.29   -0.26
#  54   -3.41   -0.31    0.05    0.63   -0.07    0.00    0.00      -3.11    2.25   -0.24
#  55   -2.89   -0.13    0.00    0.67   -0.03    0.00    0.00      -2.37    5.68   -0.25
#  56   -3.58   -0.36    0.08    1.13   -0.11    0.00    0.00      -2.84    2.88   -0.28
#  57   -1.08   -0.22    0.03    1.18   -0.06    0.00    0.00      -0.16    5.06   -0.25
#  58   -3.09   -0.81    0.60    0.07   -0.10    0.00    0.00      -3.33    0.16   -0.24
#  59   -1.63   -0.59    0.28    0.54   -0.12    0.00    0.00      -1.54    1.21   -0.28
#  60   -3.78   -0.57    0.28    1.55   -0.09    0.00    0.00      -2.61    3.59   -0.22
#  61   -3.48   -0.23    0.03    1.18   -0.06    0.00    0.00      -2.56    5.50   -0.28
#  62   -7.75   -0.88    1.47    2.92   -0.07    0.00    0.00      -4.31    8.08   -0.20
#  63   -4.58   -0.45    0.08    1.61   -0.12    0.00    0.00      -3.46    3.78   -0.28
#  64   -7.95   -0.02    0.00    2.86    0.12    0.00    0.00      -4.99   10.57    0.43
#  65   -2.51   -0.34    0.03    0.23   -0.11    0.00    0.00      -2.70    0.49   -0.23
#  66   -1.90   -0.42    0.11    0.18   -0.12    0.00    0.00      -2.16    0.42   -0.28
#  67   -0.53   -0.35    0.06    0.53   -0.09    0.00    0.00      -0.37    1.75   -0.28
#  68   -0.23   -0.36    0.14    0.95   -0.06    0.00    0.00       0.44    4.13   -0.28
#  69   -1.19   -0.29    0.08    0.23   -0.07    0.00    0.00      -1.23    0.87   -0.25
#  70   -1.77   -0.28    0.12    0.11   -0.06    0.00    0.00      -1.88    0.49   -0.27

@<TRIPOS>MOLECULE
          T535469        94
   70    72     0     0     0



@<TRIPOS>ATOM
      1 F1          0.4254    -8.2249    94.3892 F          1          -0.1755
      2 C1          0.5242    -9.2037    93.3946 C.3        1           0.5063
      3 F2          1.8716    -9.4245    93.0897 F          1          -0.1780
      4 F3         -0.0513   -10.3937    93.8527 F          1          -0.1763
      5 C2         -0.2010    -8.7385    92.1581 C.ar       1          -0.1680
      6 C3         -0.2429    -9.5505    91.0381 C.ar       1          -0.0807
      7 C4         -0.9049    -9.1321    89.9031 C.ar       1          -0.0976
      8 C5         -1.5347    -7.8837    89.8857 C.ar       1          -0.0482
      9 C6         -2.2439    -7.4297    88.6783 C.2        1          -0.0137
     10 C7         -1.8575    -6.2985    88.0549 C.2        1          -0.2172
     11 C8         -0.5514    -5.7077    88.3533 C.2        1           0.5387
     12 O1         -0.4824    -4.5781    88.8008 O.2        1          -0.5210
     13 N1          0.5745    -6.4149    88.1325 N.am       1          -0.7309
     14 C9          1.8813    -5.8238    88.4312 C.3        1           0.1182
     15 C10         2.2680    -6.1451    89.8761 C.3        1          -0.1322
     16 C11         3.6328    -5.5278    90.1881 C.3        1          -0.1154
     17 C12         4.0197    -5.8492    91.6331 C.3        1          -0.1489
     18 C13         2.9691    -5.2705    92.5831 C.3        1          -0.0195
     19 N2          3.3405    -5.5791    93.9704 N.4        1          -0.3644
     20 H1          3.7023    -6.5206    94.0000 H          1           0.4182
     21 C14         2.1279    -5.5218    94.7992 C.3        1          -0.0080
     22 C15         2.2225    -6.3634    96.0055 C.3        1          -0.1566
     23 C16         3.4119    -5.9010    96.8815 C.3        1           0.1135
     24 N3          4.6656    -6.2603    96.2699 N.am       1          -0.6350
     25 C17         5.3895    -5.3672    95.3292 C.3        1           0.0891
     26 C18         4.3902    -4.6750    94.3727 C.3        1          -0.0588
     27 C19         5.2058    -7.4593    96.5646 C.2        1           0.6994
     28 O2          4.4855    -8.3988    96.8425 O.2        1          -0.5435
     29 N4          6.5441    -7.6172    96.5512 N.am       1          -0.6824
     30 C20         7.1052    -8.8628    96.8573 C.ar       1           0.1505
     31 C21         7.9709    -8.9895    97.9355 C.ar       1          -0.1012
     32 C22         8.5231   -10.2195    98.2353 C.ar       1          -0.0879
     33 C23         8.2143   -11.3249    97.4622 C.ar       1          -0.0420
     34 Cl1         8.9096   -12.8696    97.8421 Cl         1          -0.0561
     35 C24         7.3518   -11.2012    96.3872 C.ar       1          -0.0892
     36 C25         6.7924    -9.9747    96.0866 C.ar       1          -0.1288
     37 C26        -1.4878    -7.0690    91.0213 C.ar       1          -0.0376
     38 C27        -0.8264    -7.5039    92.1504 C.ar       1          -0.0849
     39 H2          0.2443   -10.5142    91.0531 H          1           0.1370
     40 H3         -0.9364    -9.7666    89.0298 H          1           0.1359
     41 H4         -3.0738    -8.0027    88.2919 H          1           0.1460
     42 H5         -2.5112    -5.8283    87.3355 H          1           0.1380
     43 H6          0.5196    -7.3153    87.7758 H          1           0.4013
     44 H7          2.6297    -6.2361    87.7545 H          1           0.0696
     45 H8          1.8295    -4.7430    88.3007 H          1           0.0696
     46 H9          1.5196    -5.7330    90.5528 H          1           0.0746
     47 H10         2.3199    -7.2262    90.0067 H          1           0.0740
     48 H11         4.3813    -5.9401    89.5114 H          1           0.0789
     49 H12         3.5810    -4.4470    90.0577 H          1           0.0798
     50 H13         4.0715    -6.9301    91.7636 H          1           0.0899
     51 H14         4.9920    -5.4093    91.8553 H          1           0.0885
     52 H15         2.9173    -4.1896    92.4527 H          1           0.1315
     53 H16         1.9968    -5.7103    92.3607 H          1           0.1358
     54 H17         1.9579    -4.4889    95.1032 H          1           0.1315
     55 H18         1.2783    -5.8552    94.2033 H          1           0.1384
     56 H19         1.2983    -6.2811    96.5775 H          1           0.1284
     57 H20         2.3723    -7.4021    95.7111 H          1           0.0899
     58 H21         3.3688    -4.8186    97.0023 H          1           0.1134
     59 H22         3.3416    -6.3750    97.8607 H          1           0.0884
     60 H23         5.9315    -4.6097    95.8955 H          1           0.1179
     61 H24         6.0983    -5.9555    94.7463 H          1           0.1103
     62 H25         4.9236    -4.3304    93.4869 H          1           0.1499
     63 H26         3.9479    -3.8169    94.8788 H          1           0.1304
     64 H27         7.1188    -6.8678    96.3295 H          1           0.4042
     65 H28         8.2125    -8.1271    98.5389 H          1           0.1407
     66 H29         9.1968   -10.3186    99.0735 H          1           0.1415
     67 H30         7.1126   -12.0653    95.7851 H          1           0.1420
     68 H31         6.1159    -9.8796    95.2502 H          1           0.1336
     69 H32        -1.9719    -6.1037    91.0154 H          1           0.1225
     70 H33        -0.7927    -6.8775    93.0297 H          1           0.1325
@<TRIPOS>BOND
     1    1    2 1
     2    2    3 1
     3    2    4 1
     4    2    5 1
     5    5   38 ar
     6    5    6 ar
     7    6    7 ar
     8    6   39 1
     9    7    8 ar
    10    7   40 1
    11    8    9 1
    12    8   37 ar
    13    9   10 2
    14    9   41 1
    15   10   11 1
    16   10   42 1
    17   11   12 2
    18   11   13 am
    19   13   14 1
    20   13   43 1
    21   14   15 1
    22   14   44 1
    23   14   45 1
    24   15   16 1
    25   15   46 1
    26   15   47 1
    27   16   17 1
    28   16   48 1
    29   16   49 1
    30   17   18 1
    31   17   50 1
    32   17   51 1
    33   18   19 1
    34   18   52 1
    35   18   53 1
    36   19   20 1
    37   19   26 1
    38   19   21 1
    39   21   22 1
    40   21   54 1
    41   21   55 1
    42   22   23 1
    43   22   56 1
    44   22   57 1
    45   23   24 1
    46   23   58 1
    47   23   59 1
    48   24   25 1
    49   24   27 am
    50   25   26 1
    51   25   60 1
    52   25   61 1
    53   26   62 1
    54   26   63 1
    55   27   28 2
    56   27   29 am
    57   29   30 1
    58   29   64 1
    59   30   36 ar
    60   30   31 ar
    61   31   32 ar
    62   31   65 1
    63   32   33 ar
    64   32   66 1
    65   33   34 1
    66   33   35 ar
    67   35   36 ar
    68   35   67 1
    69   36   68 1
    70   37   38 ar
    71   37   69 1
    72   38   70 1
##########                 Name:              T542028
##########          Protonation:                   51
##########               SMILES:   CC(C[NH2+]Cc1cc(ccc1)c2c(cccc2)C[NH2+][C@H]3CC[NH+](CC3)Cc4ccccc4)C
##########            Long Name:   in-1-ium-4-yl)-[[2-[3-[(isobutylammonio)methyl]phenyl]phenyl]methyl]ammonium
##########          FlexRecCode: 1
##########               Number:                  155
##########   Ligand Source File: /raidb/db2/rgc/tcams/tcams-0002175.db2.gz
##########           GlobalRank: 23
##########                 Rank:                    1
##########               Setnum:                  170
##########             Matchnum:                 4527
##########                Cloud:                    1
##########        Electrostatic:           -64.773140
##########        Van der Waals:           -21.881435
##########  Ligand Polar Desolv:            19.796761
########## Ligand Apolar Desolv:            -4.744635
##########      Internal Energy:             0.000000
##########      Receptor Energy: 0.0
########## Receptor Desolvation:             0.000000
########## Receptor Hydrophobic:             0.000000
##########         Total Energy: -71.6
##########        Ligand Charge:             3.000000
##########            Arbitrary:    +999.9990
##########     heavy atom count:   33
##########           pose count:    1
##########        Ligand Energy:             0.000000
# num electro vdwattr vdwrepu polsolv apolsol rdesolv rhydroe totalscore fullpol fullapo
#   1    4.10   -2.12    0.69   -4.54   -0.12    0.00    0.00      -1.99   -7.03   -0.18
#   2    2.89   -1.51    0.23   -2.62   -0.12    0.00    0.00      -1.12   -4.42   -0.20
#   3    3.73   -2.37    1.57   -3.82   -0.12    0.00    0.00      -1.00   -5.97   -0.18
#   4    0.22   -1.19    0.27    0.86   -0.17    0.00    0.00      -0.01    1.88   -0.37
#   5   12.50   -1.27    0.18  -11.81    0.30    0.00    0.00      -0.09  -28.29    0.73
#   6   -9.44   -0.03    0.00    7.86    0.15    0.00    0.00      -1.46   23.59    0.45
#   7  -11.61   -0.04    0.00    9.32    0.20    0.00    0.00      -2.12   26.19    0.57
#   8   -0.85   -0.55    0.03    0.85   -0.13    0.00    0.00      -0.65    2.73   -0.42
#   9    3.47   -0.89    0.05   -1.46   -0.11    0.00    0.00       1.08   -4.94   -0.37
#  10    2.21   -2.50    1.68   -1.61   -0.18    0.00    0.00      -0.41   -3.97   -0.45
#  11    4.09   -3.15    1.60   -3.30   -0.22    0.00    0.00      -0.98   -7.05   -0.47
#  12    3.07   -1.99    1.02   -1.82   -0.19    0.00    0.00       0.10   -4.48   -0.46
#  13    1.72   -0.78    0.04   -0.88   -0.08    0.00    0.00       0.02   -3.18   -0.28
#  14    1.98   -0.65    0.02   -0.71   -0.09    0.00    0.00       0.54   -2.88   -0.36
#  15    0.60   -0.80    0.05   -0.02   -0.10    0.00    0.00      -0.27   -0.08   -0.37
#  16    1.32   -1.17    0.10   -2.18   -0.17    0.00    0.00      -2.10   -5.85   -0.46
#  17    0.67   -1.51    0.21   -2.42   -0.19    0.00    0.00      -3.24   -5.89   -0.47
#  18    0.70   -1.31    0.18   -2.26   -0.16    0.00    0.00      -2.86   -6.58   -0.47
#  19    0.60   -1.13    0.21   -0.87   -0.13    0.00    0.00      -1.32   -3.11   -0.45
#  20    1.95   -0.83    0.10   -0.98   -0.09    0.00    0.00       0.15   -3.91   -0.37
#  21   -0.50   -0.36    0.02    0.55   -0.07    0.00    0.00      -0.36    2.69   -0.34
#  22   13.59   -0.84    0.21   -8.00    0.15    0.00    0.00       5.11  -33.22    0.61
#  23  -17.81   -0.04    0.00    6.53    0.11    0.00    0.00     -11.20   28.08    0.49
#  24   -9.38   -0.02    0.00    6.07    0.07    0.00    0.00      -3.26   29.60    0.35
#  25   -0.34   -0.46    0.06    0.68   -0.05    0.00    0.00      -0.11    3.41   -0.27
#  26    1.90   -0.15    0.00   -1.04   -0.02    0.00    0.00       0.69  -10.78   -0.22
#  27    0.26   -0.18    0.01   -0.30   -0.04    0.00    0.00      -0.26   -2.69   -0.37
#  28    4.62   -0.29    0.01   -3.19    0.04    0.00    0.00       1.19  -21.52    0.27
#  29   -4.55    0.00    0.00    1.05    0.02    0.00    0.00      -3.48   26.31    0.54
#  30   -0.32   -0.26    0.02    0.46   -0.05    0.00    0.00      -0.14    3.55   -0.36
#  31    0.76   -0.28    0.01   -0.42   -0.03    0.00    0.00       0.03   -4.13   -0.33
#  32    0.16   -0.20    0.00   -0.29   -0.04    0.00    0.00      -0.35   -3.61   -0.45
#  33    0.21   -0.35    0.02   -0.80   -0.07    0.00    0.00      -0.99   -5.56   -0.47
#  34    0.16   -0.66    0.08   -1.01   -0.09    0.00    0.00      -1.53   -5.09   -0.47
#  35    0.53   -0.71    0.06   -1.42   -0.12    0.00    0.00      -1.66   -5.49   -0.47
#  36    0.74   -0.53    0.02   -0.70   -0.09    0.00    0.00      -0.56   -2.88   -0.36
#  37    0.71   -0.70    0.12   -0.87   -0.09    0.00    0.00      -0.82   -3.35   -0.33
#  38    4.96   -1.02    0.36   -2.67   -0.07    0.00    0.00       1.56   -9.59   -0.24
#  39   -1.16   -1.09    1.00    2.49   -0.11    0.00    0.00       1.14    5.10   -0.23
#  40   -1.75   -0.41    0.04    0.89   -0.13    0.00    0.00      -1.37    1.90   -0.28
#  41   -2.09   -1.28    1.41   -0.52   -0.15    0.00    0.00      -2.62   -0.97   -0.28
#  42   -2.34   -0.76    0.26    2.58   -0.16    0.00    0.00      -0.41    4.61   -0.28
#  43   -1.74   -1.10    0.77    0.89   -0.16    0.00    0.00      -1.34    1.55   -0.28
#  44   -1.62   -1.21    2.03    1.69   -0.17    0.00    0.00       0.73    2.82   -0.28
#  45   -1.98   -0.53    0.20   -0.36   -0.13    0.00    0.00      -2.81   -0.80   -0.28
#  46   -4.63   -0.74    0.63    4.06   -0.11    0.00    0.00      -0.80   10.34   -0.28
#  47   -3.19   -0.29    0.08    1.84   -0.07    0.00    0.00      -1.64    7.49   -0.28
#  48   -3.11   -0.17    0.01    2.83   -0.05    0.00    0.00      -0.49   14.74   -0.28
#  49   -2.11   -0.13    0.01    1.31   -0.04    0.00    0.00      -0.97    9.66   -0.28
#  50   -3.34   -1.35    4.78    2.67   -0.11    0.00    0.00       2.66    6.63   -0.28
#  51   -7.73   -1.36    1.38    1.39   -0.16    0.00    0.00      -6.48    2.45   -0.28
#  52   -6.98   -0.77    1.41    1.08   -0.10    0.00    0.00      -5.36    2.95   -0.28
#  53   -1.72   -0.14    0.01    1.61   -0.03    0.00    0.00      -0.27   13.48   -0.25
#  54   -2.46   -0.31    0.04    0.72   -0.09    0.00    0.00      -2.10    2.16   -0.28
#  55   -1.57   -0.44    0.12    0.19   -0.10    0.00    0.00      -1.80    0.54   -0.28
#  56   -0.94   -0.23    0.02    0.53   -0.07    0.00    0.00      -0.69    2.26   -0.28
#  57   -0.84   -0.18    0.02    1.70   -0.04    0.00    0.00       0.65   10.74   -0.28
#  58   -1.07   -0.10    0.01    1.44   -0.02    0.00    0.00       0.26   14.60   -0.21
#  59   -2.09   -0.08    0.00    1.02   -0.01    0.00    0.00      -1.17   12.99   -0.17
#  60   -3.87   -0.13    0.01    1.77   -0.03    0.00    0.00      -2.25   15.23   -0.28
#  61   -0.99   -0.04    0.00    0.42   -0.01    0.00    0.00      -0.62   11.41   -0.21
#  62   -1.24   -0.03    0.00    0.28   -0.01    0.00    0.00      -1.00    8.33   -0.28
#  63   -1.34   -0.10    0.01    1.15   -0.02    0.00    0.00      -0.30   12.35   -0.22
#  64   -0.98   -0.03    0.00    0.29   -0.01    0.00    0.00      -0.73    9.50   -0.28
#  65   -1.08   -0.23    0.09    1.59   -0.04    0.00    0.00       0.32   11.07   -0.28
#  66   -0.66   -0.04    0.00    0.40   -0.01    0.00    0.00      -0.32    9.01   -0.27
#  67   -0.21   -0.02    0.00    0.21   -0.01    0.00    0.00      -0.04    7.31   -0.28
#  68   -0.27   -0.07    0.00    0.12   -0.02    0.00    0.00      -0.24    1.62   -0.28
#  69   -0.32   -0.25    0.09    0.11   -0.05    0.00    0.00      -0.42    0.60   -0.28
#  70   -1.73   -0.25    0.04    0.64   -0.07    0.00    0.00      -1.37    2.54   -0.28
#  71   -1.23   -0.17    0.01    2.13   -0.06    0.00    0.00       0.68    9.74   -0.28
#  72   -2.75   -0.48    0.32    3.39   -0.07    0.00    0.00       0.42   11.94   -0.23
#  73   -3.50   -0.22    0.04    0.99   -0.04    0.00    0.00      -2.73    4.79   -0.20
#  74   -3.44   -0.16    0.01    1.23   -0.05    0.00    0.00      -2.41    7.37   -0.28
#  75   -6.33   -1.47    3.27    2.83   -0.10    0.00    0.00      -1.80    7.92   -0.28

@<TRIPOS>MOLECULE
          T542028        51
   75    78     0     0     0



@<TRIPOS>ATOM
      1 C1         -1.8250    -1.9009    93.6544 C.3        1          -0.1730
      2 C2         -2.2879    -3.1166    94.4599 C.3        1          -0.1183
      3 C3         -3.7968    -3.2996    94.2853 C.3        1          -0.1552
      4 C4         -1.5611    -4.3666    93.9600 C.3        1          -0.0085
      5 N1         -0.1124    -4.1909    94.1278 N.4        1          -0.5117
      6 H1          0.1930    -3.3892    93.5965 H          1           0.4301
      7 H2          0.0982    -4.0472    95.1041 H          1           0.4279
      8 C5          0.5854    -5.3911    93.6478 C.3        1           0.0412
      9 C6          2.0716    -5.2106    93.8198 C.ar       1          -0.1559
     10 C7          2.6689    -4.0170    93.4565 C.ar       1          -0.0788
     11 C8          4.0323    -3.8445    93.6118 C.ar       1          -0.0984
     12 C9          4.8048    -4.8639    94.1311 C.ar       1          -0.0778
     13 C10         4.2084    -6.0681    94.4992 C.ar       1          -0.0707
     14 C11         2.8335    -6.2345    94.3449 C.ar       1          -0.1024
     15 C12         5.0337    -7.1676    95.0575 C.ar       1          -0.0367
     16 C13         5.2375    -7.2600    96.4330 C.ar       1          -0.0932
     17 C14         6.0054    -8.2849    96.9469 C.ar       1          -0.0686
     18 C15         6.5726    -9.2197    96.0994 C.ar       1          -0.0995
     19 C16         6.3736    -9.1328    94.7336 C.ar       1          -0.0835
     20 C17         5.6029    -8.1148    94.2091 C.ar       1          -0.1646
     21 C18         5.3822    -8.0247    92.7211 C.3        1           0.0346
     22 N2          6.4428    -7.2073    92.1173 N.4        1          -0.5153
     23 H3          6.4224    -6.2810    92.5171 H          1           0.4333
     24 H4          7.3398    -7.6322    92.2991 H          1           0.4176
     25 C19         6.2277    -7.1195    90.6668 C.3        1           0.0146
     26 C20         6.2684    -8.5237    90.0571 C.3        1          -0.1687
     27 C21         7.6587    -9.1264    90.2706 C.3        1          -0.0257
     28 N3          8.6676    -8.2802    89.6219 N.4        1          -0.3854
     29 H5          8.4455    -8.1848    88.6424 H          1           0.4344
     30 C22         9.9908    -8.9022    89.7643 C.3        1           0.0441
     31 C23        10.9249    -8.3390    88.7243 C.ar       1          -0.1769
     32 C24        11.0242    -8.9430    87.4848 C.ar       1          -0.0897
     33 C25        11.8810    -8.4265    86.5310 C.ar       1          -0.1072
     34 C26        12.6383    -7.3058    86.8164 C.ar       1          -0.0726
     35 C27        12.5384    -6.7013    88.0555 C.ar       1          -0.1105
     36 C28        11.6783    -7.2153    89.0079 C.ar       1          -0.1031
     37 C29         8.6836    -6.9537    90.2501 C.3        1          -0.0330
     38 C30         7.3328    -6.2674    90.0359 C.3        1          -0.1655
     39 H6         -0.7500    -1.7706    93.7788 H          1           0.0487
     40 H7         -2.0525    -2.0561    92.5997 H          1           0.0750
     41 H8         -2.3427    -1.0104    94.0106 H          1           0.0884
     42 H9         -2.0604    -2.9615    95.5148 H          1           0.0942
     43 H10        -4.1265    -4.1658    94.8594 H          1           0.0703
     44 H11        -4.3146    -2.4092    94.6417 H          1           0.0684
     45 H12        -4.0244    -3.4547    93.2307 H          1           0.0828
     46 H13        -1.8910    -5.2326    94.5339 H          1           0.1340
     47 H14        -1.7885    -4.5217    92.9054 H          1           0.1360
     48 H15         0.2556    -6.2570    94.2217 H          1           0.1364
     49 H16         0.3580    -5.5462    92.5931 H          1           0.1433
     50 H17         2.0683    -3.2167    93.0499 H          1           0.1430
     51 H18         4.4936    -2.9108    93.3258 H          1           0.1489
     52 H19         5.8695    -4.7284    94.2516 H          1           0.1440
     53 H20         2.3655    -7.1645    94.6322 H          1           0.1380
     54 H21         4.7955    -6.5305    97.0956 H          1           0.1407
     55 H22         6.1642    -8.3572    98.0127 H          1           0.1472
     56 H23         7.1732   -10.0200    96.5058 H          1           0.1459
     57 H24         6.8191    -9.8650    94.0763 H          1           0.1370
     58 H25         5.4045    -9.0254    92.2893 H          1           0.1446
     59 H26         4.4133    -7.5657    92.5244 H          1           0.1422
     60 H27         5.2578    -6.6630    90.4692 H          1           0.1667
     61 H28         5.5209    -9.1524    90.5410 H          1           0.1376
     62 H29         6.0581    -8.4632    88.9893 H          1           0.1417
     63 H30         7.8679    -9.1866    91.3386 H          1           0.1227
     64 H31         7.6911   -10.1263    89.8380 H          1           0.1630
     65 H32        10.3855    -8.6930    90.7585 H          1           0.1377
     66 H33         9.9024    -9.9799    89.6277 H          1           0.1473
     67 H34        10.4326    -9.8186    87.2618 H          1           0.1334
     68 H35        11.9591    -8.8988    85.5628 H          1           0.1421
     69 H36        13.3083    -6.9027    86.0713 H          1           0.1422
     70 H37        13.1303    -5.8259    88.2786 H          1           0.1399
     71 H38        11.5975    -6.7408    89.9747 H          1           0.1271
     72 H39         8.8710    -7.0603    91.3185 H          1           0.1222
     73 H40         9.4726    -6.3496    89.8022 H          1           0.1626
     74 H41         7.1444    -6.1601    88.9676 H          1           0.1411
     75 H42         7.3461    -5.2834    90.5044 H          1           0.1359
@<TRIPOS>BOND
     1    1    2 1
     2    1   39 1
     3    1   40 1
     4    1   41 1
     5    2    3 1
     6    2    4 1
     7    2   42 1
     8    3   43 1
     9    3   44 1
    10    3   45 1
    11    4    5 1
    12    4   46 1
    13    4   47 1
    14    5    6 1
    15    5    7 1
    16    5    8 1
    17    8    9 1
    18    8   48 1
    19    8   49 1
    20    9   14 ar
    21    9   10 ar
    22   10   11 ar
    23   10   50 1
    24   11   12 ar
    25   11   51 1
    26   12   13 ar
    27   12   52 1
    28   13   14 ar
    29   13   15 1
    30   14   53 1
    31   15   20 ar
    32   15   16 ar
    33   16   17 ar
    34   16   54 1
    35   17   18 ar
    36   17   55 1
    37   18   19 ar
    38   18   56 1
    39   19   20 ar
    40   19   57 1
    41   20   21 1
    42   21   22 1
    43   21   58 1
    44   21   59 1
    45   22   23 1
    46   22   24 1
    47   22   25 1
    48   25   38 1
    49   25   26 1
    50   25   60 1
    51   26   27 1
    52   26   61 1
    53   26   62 1
    54   27   28 1
    55   27   63 1
    56   27   64 1
    57   28   29 1
    58   28   30 1
    59   28   37 1
    60   30   31 1
    61   30   65 1
    62   30   66 1
    63   31   36 ar
    64   31   32 ar
    65   32   33 ar
    66   32   67 1
    67   33   34 ar
    68   33   68 1
    69   34   35 ar
    70   34   69 1
    71   35   36 ar
    72   35   70 1
    73   36   71 1
    74   37   38 1
    75   37   72 1
    76   37   73 1
    77   38   74 1
    78   38   75 1
##########                 Name:              T541566
##########          Protonation:                   83
##########               SMILES:   c1cc(ccc1/C(=N/C(=[NH2+])NCCCCCCNC(=[NH2+])NC(=[NH2+])c2ccc(cc2)Cl)/N)Cl
##########            Long Name:   dene-(4-chlorophenyl)methyl]amino]methyl]amino]hexylamino]methylene]ammonium
##########          FlexRecCode: 1
##########               Number:                  219
##########   Ligand Source File: /raidb/db2/rgc/tcams/tcams-0002124.db2.gz
##########           GlobalRank: 24
##########                 Rank:                    1
##########               Setnum:                   26
##########             Matchnum:                 4700
##########                Cloud:                    1
##########        Electrostatic:           -48.372528
##########        Van der Waals:           -22.955917
##########  Ligand Polar Desolv:             3.477696
########## Ligand Apolar Desolv:            -3.710229
##########      Internal Energy:             0.000000
##########      Receptor Energy: 0.0
########## Receptor Desolvation:             0.000000
########## Receptor Hydrophobic:             0.000000
##########         Total Energy: -71.56
##########        Ligand Charge:             3.000000
##########            Arbitrary:    +999.9990
##########     heavy atom count:   32
##########           pose count:    1
##########        Ligand Energy:             0.000000
# num electro vdwattr vdwrepu polsolv apolsol rdesolv rhydroe totalscore fullpol fullapo
#   1   24.73   -1.22    0.23   -9.99    0.26    0.00    0.00      14.00  -30.84    0.81
#   2  -12.61   -1.08    0.09    7.32   -0.75    0.00    0.00      -7.03   19.87   -2.04
#   3   14.37   -2.11    0.88   -9.75    0.81    0.00    0.00       4.20  -22.36    1.86
#   4  -21.08   -2.34    0.78   12.07   -1.94    0.00    0.00     -12.49   26.31   -4.22
#   5   27.21   -4.17    2.14  -15.93    0.51    0.00    0.00       9.76  -28.26    0.90
#   6  -15.84   -0.08    0.00   10.60    0.28    0.00    0.00      -5.04   18.85    0.49
#   7  -17.68   -0.07    0.00    9.45    0.34    0.00    0.00      -7.97   16.75    0.60
#   8   19.37   -1.44    0.15  -11.70    0.51    0.00    0.00       6.89  -28.26    1.24
#   9   -1.65   -0.67    0.03    1.23   -0.15    0.00    0.00      -1.21    3.09   -0.38
#  10    3.21   -0.76    0.10   -2.20   -0.09    0.00    0.00       0.25   -5.45   -0.22
#  11    2.23   -0.44    0.01   -1.42   -0.06    0.00    0.00       0.32   -5.32   -0.22
#  12    1.27   -0.33    0.01   -0.99   -0.04    0.00    0.00      -0.08   -5.58   -0.22
#  13    1.13   -0.26    0.01   -1.02   -0.03    0.00    0.00      -0.17   -6.73   -0.22
#  14   -0.35   -0.18    0.00    0.43   -0.04    0.00    0.00      -0.13    4.15   -0.37
#  15    6.07   -0.33    0.01   -4.65    0.22    0.00    0.00       1.32  -35.58    1.72
#  16   -6.88   -0.25    0.01    4.38   -0.47    0.00    0.00      -3.22   43.79   -4.71
#  17   10.05   -0.32    0.01   -6.21    0.10    0.00    0.00       3.63  -44.59    0.73
#  18   -7.48   -0.01    0.00    2.53    0.04    0.00    0.00      -4.92   27.71    0.40
#  19   -5.37    0.00    0.00    1.14    0.02    0.00    0.00      -4.21   28.54    0.49
#  20    3.24   -0.14    0.00   -2.14    0.06    0.00    0.00       1.03  -35.33    1.05
#  21   -3.53   -0.14    0.00    2.25   -0.12    0.00    0.00      -1.53   38.61   -2.02
#  22    1.88   -0.12    0.00   -2.27    0.04    0.00    0.00      -0.46  -38.91    0.73
#  23   -0.69    0.00    0.00    0.60    0.01    0.00    0.00      -0.07   27.74    0.50
#  24   -0.92    0.00    0.00    1.21    0.02    0.00    0.00       0.30   27.82    0.35
#  25    1.99   -0.28    0.01   -0.64   -0.05    0.00    0.00       1.03   -5.52   -0.40
#  26    0.35   -0.28    0.01   -0.03   -0.05    0.00    0.00      -0.01   -0.29   -0.44
#  27    1.80   -0.52    0.02   -1.15   -0.09    0.00    0.00       0.06   -5.76   -0.46
#  28   -1.31   -1.28    0.25   -0.66   -0.10    0.00    0.00      -3.10   -1.98   -0.30
#  29   -0.50   -6.72    7.04   -2.16   -0.46    0.00    0.00      -2.80   -4.58   -0.98
#  30    2.93   -1.89    0.72   -1.86   -0.15    0.00    0.00      -0.24   -5.83   -0.46
#  31    0.43   -0.73    0.07   -0.18   -0.10    0.00    0.00      -0.50   -0.81   -0.44
#  32    1.82   -1.13    0.08   -0.94   -0.15    0.00    0.00      -0.32   -2.50   -0.41
#  33    0.29   -1.62    0.20   -0.46   -0.23    0.00    0.00      -1.82   -0.94   -0.46
#  34    1.66   -2.05    0.59   -1.79   -0.24    0.00    0.00      -1.84   -3.40   -0.46
#  35   -0.17   -1.74    0.49   -0.46   -0.12    0.00    0.00      -2.01   -1.10   -0.29
#  36    0.21   -4.27    2.93   -1.25   -0.53    0.00    0.00      -2.91   -2.32   -0.98
#  37    0.82   -1.26    0.13   -1.21   -0.16    0.00    0.00      -1.68   -3.48   -0.46
#  38    0.52   -1.13    0.12   -0.34   -0.15    0.00    0.00      -0.98   -1.06   -0.45
#  39  -16.33   -0.03    0.00    3.79    0.09    0.00    0.00     -12.48   17.86    0.44
#  40  -11.14   -0.02    0.00    3.57    0.09    0.00    0.00      -7.49   17.44    0.46
#  41  -12.05   -0.03    0.00    5.22    0.15    0.00    0.00      -6.70   17.78    0.52
#  42   -1.16   -0.16    0.01    0.58   -0.04    0.00    0.00      -0.77    3.86   -0.27
#  43   -1.75   -0.30    0.03    1.82   -0.09    0.00    0.00      -0.29    5.46   -0.28
#  44   -1.85   -0.29    0.05    1.27   -0.09    0.00    0.00      -0.91    3.83   -0.28
#  45   -2.66   -0.40    0.16    0.82   -0.09    0.00    0.00      -2.17    2.44   -0.28
#  46   -1.45   -0.14    0.01    0.34   -0.04    0.00    0.00      -1.28    2.30   -0.28
#  47   -1.60   -0.15    0.01    0.47   -0.04    0.00    0.00      -1.32    2.96   -0.28
#  48   -0.95   -0.09    0.00    0.27   -0.02    0.00    0.00      -0.79    3.32   -0.28
#  49   -0.42   -0.13    0.01    0.38   -0.04    0.00    0.00      -0.20    2.95   -0.28
#  50   -0.37   -0.07    0.00    0.26   -0.02    0.00    0.00      -0.20    3.58   -0.28
#  51   -1.16   -0.13    0.01    0.47   -0.04    0.00    0.00      -0.85    3.66   -0.28
#  52   -0.11   -0.06    0.00    0.48   -0.02    0.00    0.00       0.29    7.34   -0.28
#  53   -0.46   -0.04    0.00    0.32   -0.01    0.00    0.00      -0.19    8.03   -0.27
#  54   -5.76   -0.01    0.00    1.84    0.04    0.00    0.00      -3.88   26.21    0.58
#  55   -1.01    0.00    0.00    0.83    0.01    0.00    0.00      -0.17   29.71    0.51
#  56   -1.08   -0.03    0.00    0.45   -0.01    0.00    0.00      -0.68   12.93   -0.25
#  57   -2.33   -0.08    0.00    0.27   -0.02    0.00    0.00      -2.16    3.86   -0.28
#  58   -7.88   -1.55    5.67    1.30   -0.11    0.00    0.00      -2.57    3.32   -0.28
#  59   -0.93   -0.14    0.01    1.70   -0.04    0.00    0.00       0.59   11.80   -0.25
#  60   -2.39   -0.56    0.42    2.06   -0.12    0.00    0.00      -0.58    4.74   -0.27
#  61   -2.99   -0.58    0.22    1.19   -0.14    0.00    0.00      -2.30    2.43   -0.28
#  62   -0.88   -0.20    0.01    0.74   -0.06    0.00    0.00      -0.39    3.46   -0.28
#  63   -1.17   -0.18    0.02    1.21   -0.03    0.00    0.00      -0.16    7.87   -0.22

@<TRIPOS>MOLECULE
          T541566        83
   63    64     0     0     0



@<TRIPOS>ATOM
      1 N1          6.1402    -6.3978    94.3742 N.pl3      1          -0.8381
      2 C1          6.0019    -6.5842    95.7243 C.2        1           0.5832
      3 N2          5.3133    -5.7193    96.4418 N.2        1          -0.6154
      4 C2          4.5864    -4.7612    95.8289 C.cat      1           0.7117
      5 N3          5.1298    -3.6024    95.5544 N.pl3      1          -0.7432
      6 H1          6.0549    -3.4323    95.7916 H          1           0.4308
      7 H2          4.6076    -2.9138    95.1141 H          1           0.4504
      8 N4          3.2699    -5.0034    95.4917 N.pl3      1          -0.7271
      9 C3          2.6617    -6.3003    95.7990 C.3        1           0.0827
     10 C4          1.2073    -6.3068    95.3243 C.3        1          -0.1340
     11 C5          1.1625    -6.0676    93.8139 C.3        1          -0.1195
     12 C6          1.9371    -7.1764    93.0987 C.3        1          -0.1188
     13 C7          1.8923    -6.9373    91.5883 C.3        1          -0.1382
     14 C8          2.6670    -8.0460    90.8731 C.3        1           0.0699
     15 N5          4.0597    -8.0399    91.3273 N.pl3      1          -0.6276
     16 C9          5.0610    -8.4514    90.4799 C.cat      1           0.7229
     17 N6          6.2993    -8.4459    90.8840 N.pl3      1          -0.7610
     18 H3          6.5150    -8.1515    91.7826 H          1           0.4443
     19 H4          7.0058    -8.7362    90.2860 H          1           0.4629
     20 N7          4.7544    -8.8698    89.2024 N.pl3      1          -0.6356
     21 C10         5.6681    -8.6950    88.1801 C.cat      1           0.6343
     22 N8          5.6975    -9.5318    87.1832 N.pl3      1          -0.7207
     23 H5          5.0782   -10.2780    87.1579 H          1           0.4709
     24 H6          6.3386    -9.4093    86.4657 H          1           0.4302
     25 C11         6.6130    -7.5565    88.2187 C.ar       1          -0.1831
     26 C12         7.9886    -7.7882    88.2229 C.ar       1          -0.0306
     27 C13         8.8647    -6.7232    88.2585 C.ar       1          -0.1049
     28 C14         8.3808    -5.4261    88.2902 C.ar       1           0.0475
     29 Cl1         9.4891    -4.0907    88.3343 Cl         1           0.0140
     30 C15         7.0163    -5.1904    88.2861 C.ar       1          -0.1028
     31 C16         6.1311    -6.2476    88.2453 C.ar       1          -0.0293
     32 C17         6.6241    -7.7543    96.3756 C.ar       1          -0.1256
     33 C18         7.0406    -7.6768    97.7065 C.ar       1          -0.0195
     34 C19         7.6205    -8.7730    98.3092 C.ar       1          -0.1182
     35 C20         7.7907    -9.9491    97.5975 C.ar       1           0.0177
     36 Cl2         8.5223   -11.3247    98.3632 Cl         1          -0.0252
     37 C21         7.3794   -10.0323    96.2774 C.ar       1          -0.1150
     38 C22         6.7933    -8.9448    95.6650 C.ar       1          -0.0557
     39 H7          5.7332    -5.6281    93.9467 H          1           0.4094
     40 H8          6.6487    -7.0332    93.8464 H          1           0.4267
     41 H9          2.7475    -4.3149    95.0513 H          1           0.4308
     42 H10         3.2136    -7.0902    95.2896 H          1           0.0900
     43 H11         2.6935    -6.4707    96.8751 H          1           0.0908
     44 H12         0.7547    -7.2717    95.5531 H          1           0.0810
     45 H13         0.6554    -5.5168    95.8337 H          1           0.0831
     46 H14         0.1262    -6.0723    93.4758 H          1           0.0765
     47 H15         1.6149    -5.1027    93.5852 H          1           0.0762
     48 H16         2.9733    -7.1718    93.4368 H          1           0.0775
     49 H17         1.4846    -8.1414    93.3274 H          1           0.0776
     50 H18         0.8560    -6.9420    91.2502 H          1           0.0908
     51 H19         2.3448    -5.9723    91.3596 H          1           0.0913
     52 H20         2.2145    -9.0111    91.1019 H          1           0.1150
     53 H21         2.6350    -7.8757    89.7969 H          1           0.1131
     54 H22         4.2756    -7.7455    92.2260 H          1           0.4513
     55 H23         3.8977    -9.2869    89.0211 H          1           0.4793
     56 H24         8.3670    -8.7994    88.1987 H          1           0.1520
     57 H25         9.9299    -6.9015    88.2622 H          1           0.1706
     58 H26         6.6443    -4.1767    88.3111 H          1           0.1722
     59 H27         5.0672    -6.0624    88.2375 H          1           0.1560
     60 H28         6.9090    -6.7602    98.2623 H          1           0.1560
     61 H29         7.9430    -8.7144    99.3383 H          1           0.1551
     62 H30         7.5148   -10.9521    95.7277 H          1           0.1542
     63 H31         6.4692    -9.0122    94.6370 H          1           0.1390
@<TRIPOS>BOND
     1    1    2 1
     2    1   39 1
     3    1   40 1
     4    2    3 2
     5    2   32 1
     6    3    4 1
     7    4    5 2
     8    4    8 1
     9    5    6 1
    10    5    7 1
    11    8    9 1
    12    8   41 1
    13    9   10 1
    14    9   42 1
    15    9   43 1
    16   10   11 1
    17   10   44 1
    18   10   45 1
    19   11   12 1
    20   11   46 1
    21   11   47 1
    22   12   13 1
    23   12   48 1
    24   12   49 1
    25   13   14 1
    26   13   50 1
    27   13   51 1
    28   14   15 1
    29   14   52 1
    30   14   53 1
    31   15   16 1
    32   15   54 1
    33   16   17 2
    34   16   20 1
    35   17   18 1
    36   17   19 1
    37   20   21 1
    38   20   55 1
    39   21   22 2
    40   21   25 1
    41   22   23 1
    42   22   24 1
    43   25   31 ar
    44   25   26 ar
    45   26   27 ar
    46   26   56 1
    47   27   28 ar
    48   27   57 1
    49   28   29 1
    50   28   30 ar
    51   30   31 ar
    52   30   58 1
    53   31   59 1
    54   32   38 ar
    55   32   33 ar
    56   33   34 ar
    57   33   60 1
    58   34   35 ar
    59   34   61 1
    60   35   36 1
    61   35   37 ar
    62   37   38 ar
    63   37   62 1
    64   38   63 1
##########                 Name:              T536224
##########          Protonation:                   19
##########               SMILES:   c1cc(ccc1CNc2[nH+]c(nc(n2)N3CCC[C@H]4[C@@H]3CCCC4)NCCc5c[nH]cn5)Cl
##########            Long Name:   henyl)methyl]-N4-[2-(1H-imidazol-4-yl)ethyl]-1,3,5-triazin-3-ium-2,4-diamine
##########          FlexRecCode: 1
##########               Number:                    3
##########   Ligand Source File: /raidb/db2/rgc/tcams/tcams-0001553.db2.gz
##########           GlobalRank: 25
##########                 Rank:                    1
##########               Setnum:                   34
##########             Matchnum:                 4534
##########                Cloud:                    1
##########        Electrostatic:           -54.153503
##########        Van der Waals:           -20.702835
##########  Ligand Polar Desolv:             8.122834
########## Ligand Apolar Desolv:            -4.725803
##########      Internal Energy:             0.000000
##########      Receptor Energy: 0.0
########## Receptor Desolvation:             0.000000
########## Receptor Hydrophobic:             0.000000
##########         Total Energy: -71.46
##########        Ligand Charge:             1.000000
##########            Arbitrary:    +999.9990
##########     heavy atom count:   33
##########           pose count:    1
##########        Ligand Energy:             0.000000
# num electro vdwattr vdwrepu polsolv apolsol rdesolv rhydroe totalscore fullpol fullapo
#   1    0.75   -3.05    0.52   -0.41   -0.48    0.00    0.00      -2.67   -0.84   -0.99
#   2    0.23   -1.40    0.24   -0.27   -0.13    0.00    0.00      -1.32   -0.65   -0.30
#   3    1.68   -1.50    0.20   -0.72   -0.19    0.00    0.00      -0.52   -1.75   -0.46
#   4    1.57   -1.28    0.13   -0.45   -0.18    0.00    0.00      -0.20   -1.18   -0.46
#   5    3.70   -1.26    0.12   -0.67   -0.14    0.00    0.00       1.75   -1.72   -0.37
#   6   -4.51   -1.00    0.11    1.40   -0.16    0.00    0.00      -4.17    3.34   -0.39
#   7   28.79   -3.12    1.90   -6.35    0.73    0.00    0.00      21.95  -15.08    1.73
#   8  -21.81   -1.80    0.63    4.60   -1.45    0.00    0.00     -19.83   14.87   -4.68
#   9   23.77   -3.32    2.89   -5.09    0.35    0.00    0.00      18.61  -14.40    0.99
#  10  -27.01   -0.26    0.15    5.42    0.16    0.00    0.00     -21.54   12.22    0.36
#  11  -11.92   -1.06    0.16    4.00   -1.31    0.00    0.00     -10.13   14.70   -4.81
#  12    4.52   -1.30    0.27   -4.02    0.49    0.00    0.00      -0.04  -14.25    1.73
#  13   -0.27   -0.35    0.03    0.43   -0.07    0.00    0.00      -0.24    2.44   -0.38
#  14    0.09   -0.82    0.27   -0.18   -0.06    0.00    0.00      -0.70   -0.71   -0.25
#  15    0.07   -1.55    0.45   -0.17   -0.22    0.00    0.00      -1.42   -0.53   -0.69
#  16    0.14   -2.05    0.85   -0.37   -0.41    0.00    0.00      -1.82   -0.91   -1.01
#  17    7.15   -3.65    5.91   -3.45    0.54    0.00    0.00       6.49   -7.86    1.22
#  18   -4.22   -2.13    0.74    0.83   -1.39    0.00    0.00      -6.17    2.01   -3.34
#  19    3.48   -2.44    1.97   -2.27    0.76    0.00    0.00       1.49   -6.50    2.17
#  20    5.87   -0.39    0.01   -1.99    0.31    0.00    0.00       3.81  -11.77    1.83
#  21   -6.90   -0.38    0.01    1.65   -0.56    0.00    0.00      -6.18   11.17   -3.77
#  22   10.86   -0.59    0.03   -2.43    0.14    0.00    0.00       8.01  -11.45    0.66
#  23    1.90   -0.37    0.01   -1.14    0.18    0.00    0.00       0.59   -8.22    1.29
#  24   -0.04   -0.48    0.13    0.31   -0.08    0.00    0.00      -0.16    1.82   -0.48
#  25    0.09   -0.26    0.03   -0.25   -0.03    0.00    0.00      -0.43   -1.72   -0.23
#  26    0.14   -0.38    0.05   -0.30   -0.05    0.00    0.00      -0.54   -1.48   -0.23
#  27    0.18   -0.32    0.02   -0.23   -0.03    0.00    0.00      -0.39   -1.16   -0.17
#  28    0.18   -0.19    0.00   -0.13   -0.02    0.00    0.00      -0.16   -1.15   -0.19
#  29    0.22   -0.34    0.02   -0.36   -0.06    0.00    0.00      -0.53   -1.57   -0.25
#  30    0.48   -0.48    0.08   -0.28   -0.04    0.00    0.00      -0.24   -1.29   -0.19
#  31    1.15   -0.39    0.02   -0.37   -0.05    0.00    0.00       0.37   -1.71   -0.21
#  32   -0.32   -0.32    0.01    0.49   -0.06    0.00    0.00      -0.20    2.26   -0.29
#  33    2.77   -1.86    0.62   -0.54   -0.21    0.00    0.00       0.78   -1.20   -0.46
#  34    2.94   -1.74    0.33   -0.76   -0.20    0.00    0.00       0.56   -1.73   -0.46
#  35   -1.55   -0.46    0.12    0.53   -0.11    0.00    0.00      -1.46    1.37   -0.28
#  36   -2.68   -0.23    0.01    0.97   -0.07    0.00    0.00      -2.01    3.67   -0.28
#  37   -2.42   -0.17    0.01    0.65   -0.05    0.00    0.00      -1.98    3.72   -0.27
#  38   -3.16   -0.63    0.28    1.77   -0.12    0.00    0.00      -1.86    3.96   -0.27
#  39  -26.50   -0.13    0.02    4.85    0.28    0.00    0.00     -21.48    9.97    0.58
#  40   -7.20   -0.05    0.00    3.12    0.18    0.00    0.00      -3.94    9.92    0.58
#  41   -0.37   -0.05    0.00    0.09   -0.01    0.00    0.00      -0.34    2.05   -0.27
#  42   -0.18   -0.06    0.00    0.17   -0.02    0.00    0.00      -0.08    2.85   -0.27
#  43   -0.21   -0.11    0.01    0.27   -0.03    0.00    0.00      -0.08    2.55   -0.28
#  44   -0.16   -0.87    1.51    0.36   -0.07    0.00    0.00       0.76    1.35   -0.28
#  45   -0.70   -0.40    0.11    1.25   -0.10    0.00    0.00       0.17    3.59   -0.28
#  46  -11.14   -0.20    0.13    2.67    0.22    0.00    0.00      -8.31    7.04    0.59
#  47   -7.21   -0.41    0.07    1.36   -0.11    0.00    0.00      -6.29    3.56   -0.28
#  48   -0.08   -0.08    0.01    0.15   -0.02    0.00    0.00      -0.03    1.80   -0.24
#  49    0.03   -0.65    0.92    0.32   -0.06    0.00    0.00       0.55    1.41   -0.28
#  50   -0.07   -0.03    0.00    0.02   -0.01    0.00    0.00      -0.08    0.65   -0.22
#  51   -0.03   -0.10    0.01    0.11   -0.03    0.00    0.00      -0.03    1.13   -0.28
#  52   -0.08   -0.07    0.01    0.03   -0.02    0.00    0.00      -0.14    0.43   -0.28
#  53   -0.07   -0.30    0.17    0.22   -0.07    0.00    0.00      -0.05    0.92   -0.28
#  54   -0.24   -0.21    0.04    0.18   -0.06    0.00    0.00      -0.29    0.89   -0.28
#  55   -0.08   -0.03    0.00    0.02   -0.01    0.00    0.00      -0.10    0.64   -0.20
#  56   -0.10   -0.05    0.00    0.01   -0.01    0.00    0.00      -0.15    0.23   -0.28
#  57   -0.08   -0.10    0.00    0.04   -0.03    0.00    0.00      -0.16    0.36   -0.28
#  58   -0.24   -0.17    0.02    0.10   -0.06    0.00    0.00      -0.36    0.45   -0.28
#  59   -0.22   -0.13    0.02    0.13   -0.01    0.00    0.00      -0.21    1.10   -0.11
#  60   -0.34   -0.33    0.20    0.23   -0.06    0.00    0.00      -0.30    1.11   -0.28
#  61   -1.63   -0.10    0.00    0.21   -0.02    0.00    0.00      -1.54    2.17   -0.20
#  62   -1.12   -0.23    0.07    0.14   -0.05    0.00    0.00      -1.19    0.81   -0.28
#  63   -0.42   -0.15    0.01    0.25   -0.05    0.00    0.00      -0.36    1.36   -0.28
#  64   -7.53   -1.43    6.63    1.36   -0.11    0.00    0.00      -1.07    3.45   -0.28
#  65   -4.09   -0.71    0.48    0.59   -0.13    0.00    0.00      -3.86    1.29   -0.28

@<TRIPOS>MOLECULE
          T536224        19
   65    69     0     0     0



@<TRIPOS>ATOM
      1 Cl1         7.6587    -7.8688    97.5237 Cl         1          -0.0480
      2 C1          6.5104    -6.9036    96.6499 C.ar       1          -0.0131
      3 C2          5.1640    -6.9812    96.9587 C.ar       1          -0.1104
      4 C3          4.2503    -6.2125    96.2627 C.ar       1          -0.0780
      5 C4          4.6813    -5.3667    95.2577 C.ar       1          -0.1286
      6 C5          3.6845    -4.5289    94.4991 C.3        1           0.1411
      7 N1          4.1722    -4.3042    93.1362 N.pl3      1          -0.6633
      8 C6          3.8441    -5.1910    92.1308 C.ar       1           0.6617
      9 N2          4.2913    -4.9899    90.8951 N.ar       1          -0.6355
     10 H1          4.8481    -4.2200    90.7000 H          1           0.4334
     11 C7          3.9756    -5.8442    89.9268 C.ar       1           0.6917
     12 N3          4.4403    -5.6356    88.6441 N.pl3      1          -0.6635
     13 C8          4.0925    -6.5771    87.5769 C.3        1           0.0982
     14 C9          4.0392    -5.8352    86.2398 C.3        1          -0.0363
     15 C10         5.3857    -5.2233    85.9508 C.2        1          -0.0177
     16 C11         5.9088    -5.0018    84.7298 C.2        1          -0.0333
     17 N4          7.1396    -4.4348    84.9231 N.pl3      1          -0.5652
     18 C12         7.3259    -4.3295    86.2564 C.2        1           0.1979
     19 N5          6.2708    -4.7984    86.8648 N.2        1          -0.4937
     20 N6          3.2128    -6.8997    90.1942 N.ar       1          -0.6194
     21 C13         2.7654    -7.1005    91.4296 C.ar       1           0.6693
     22 N7          3.0855    -6.2489    92.3991 N.ar       1          -0.5798
     23 N8          1.9731    -8.1959    91.7072 N.pl3      1          -0.5151
     24 C14         2.4735    -9.5609    91.4874 C.3        1           0.1077
     25 C15         1.4733   -10.3199    90.6106 C.3        1          -0.1398
     26 C16         0.0817   -10.2499    91.2440 C.3        1          -0.1244
     27 C17        -0.3634    -8.7847    91.3267 C.3        1          -0.0982
     28 C18        -0.3386    -8.1823    89.9196 C.3        1          -0.1156
     29 C19        -0.7257    -6.7044    89.9835 C.3        1          -0.1309
     30 C20         0.2797    -5.9563    90.8622 C.3        1          -0.1039
     31 C21         0.2488    -6.5441    92.2742 C.3        1          -0.1248
     32 C22         0.6142    -8.0252    92.2339 C.3        1           0.1469
     33 C23         6.0265    -5.2888    94.9487 C.ar       1          -0.0772
     34 C24         6.9419    -6.0523    95.6483 C.ar       1          -0.1100
     35 H2          4.8270    -7.6424    97.7433 H          1           0.1426
     36 H3          3.1992    -6.2729    96.5036 H          1           0.1365
     37 H4          2.7270    -5.0486    94.4614 H          1           0.0947
     38 H5          3.5579    -3.5703    95.0024 H          1           0.0933
     39 H6          4.7258    -3.5321    92.9402 H          1           0.4423
     40 H7          4.9971    -4.8656    88.4492 H          1           0.4425
     41 H8          4.8458    -7.3634    87.5264 H          1           0.0935
     42 H9          3.1186    -7.0197    87.7860 H          1           0.0835
     43 H10         3.7805    -6.5356    85.4458 H          1           0.0930
     44 H11         3.2861    -5.0490    86.2903 H          1           0.0929
     45 H12         5.4462    -5.2284    83.7806 H          1           0.1798
     46 H13         7.7617    -4.1599    84.2316 H          1           0.4276
     47 H14         8.2013    -3.9210    86.7394 H          1           0.2125
     48 H15         3.4404    -9.5189    90.9859 H          1           0.1080
     49 H16         2.5789   -10.0697    92.4455 H          1           0.0884
     50 H17         1.4440    -9.8684    89.6188 H          1           0.0759
     51 H18         1.7819   -11.3619    90.5261 H          1           0.0887
     52 H19        -0.6251   -10.8111    90.6327 H          1           0.0771
     53 H20         0.1162   -10.6769    92.2462 H          1           0.0714
     54 H21        -1.3687    -8.7295    91.7443 H          1           0.0965
     55 H22         0.6639    -8.2769    89.5025 H          1           0.0610
     56 H23        -1.0463    -8.7153    89.2846 H          1           0.0690
     57 H24        -0.7159    -6.2819    88.9787 H          1           0.0604
     58 H25        -1.7243    -6.6078    90.4097 H          1           0.0675
     59 H26         1.2805    -6.0654    90.4443 H          1           0.0572
     60 H27         0.0138    -4.9001    90.9016 H          1           0.0613
     61 H28         0.9652    -6.0147    92.9024 H          1           0.1098
     62 H29        -0.7512    -6.4293    92.6923 H          1           0.0769
     63 H30         0.5651    -8.4338    93.2433 H          1           0.0943
     64 H31         6.3626    -4.6281    94.1632 H          1           0.1371
     65 H32         7.9933    -5.9878    95.4100 H          1           0.1428
@<TRIPOS>BOND
     1    1    2 1
     2    2   34 ar
     3    2    3 ar
     4    3    4 ar
     5    3   35 1
     6    4    5 ar
     7    4   36 1
     8    5    6 1
     9    5   33 ar
    10    6    7 1
    11    6   37 1
    12    6   38 1
    13    7    8 1
    14    7   39 1
    15    8   22 ar
    16    8    9 ar
    17    9   10 1
    18    9   11 ar
    19   11   12 1
    20   11   20 ar
    21   12   13 1
    22   12   40 1
    23   13   14 1
    24   13   41 1
    25   13   42 1
    26   14   15 1
    27   14   43 1
    28   14   44 1
    29   15   19 1
    30   15   16 2
    31   16   17 1
    32   16   45 1
    33   17   18 1
    34   17   46 1
    35   18   19 2
    36   18   47 1
    37   20   21 ar
    38   21   22 ar
    39   21   23 1
    40   23   32 1
    41   23   24 1
    42   24   25 1
    43   24   48 1
    44   24   49 1
    45   25   26 1
    46   25   50 1
    47   25   51 1
    48   26   27 1
    49   26   52 1
    50   26   53 1
    51   27   32 1
    52   27   28 1
    53   27   54 1
    54   28   29 1
    55   28   55 1
    56   28   56 1
    57   29   30 1
    58   29   57 1
    59   29   58 1
    60   30   31 1
    61   30   59 1
    62   30   60 1
    63   31   32 1
    64   31   61 1
    65   31   62 1
    66   32   63 1
    67   33   34 ar
    68   33   64 1
    69   34   65 1
##########                 Name:              T539461
##########          Protonation:                   72
##########               SMILES:   2c([nH]c(c2)C[NH+]3C[C@@]4(Oc5c(cccc5)C3)CC[NH+](CC4)Cc6c7c([nH]c6)cncc7)cc1
##########            Long Name:   3-ylmethyl)spiro[4,5-dihydro-3H-1,4-benzoxazepin-4-ium-2,4'-piperidin-1-ium]
##########          FlexRecCode: 1
##########               Number:                  299
##########   Ligand Source File: /raidb/db2/rgc/tcams/tcams-0001887.db2.gz
##########           GlobalRank: 27
##########                 Rank:                    1
##########               Setnum:                   61
##########             Matchnum:                  804
##########                Cloud:                    1
##########        Electrostatic:           -44.487900
##########        Van der Waals:           -30.324677
##########  Ligand Polar Desolv:             6.897914
########## Ligand Apolar Desolv:            -3.527154
##########      Internal Energy:             0.000000
##########      Receptor Energy: 0.0
########## Receptor Desolvation:             0.000000
########## Receptor Hydrophobic:             0.000000
##########         Total Energy: -71.44
##########        Ligand Charge:             2.000000
##########            Arbitrary:    +999.9990
##########     heavy atom count:   36
##########           pose count:    1
##########        Ligand Energy:             0.000000
# num electro vdwattr vdwrepu polsolv apolsol rdesolv rhydroe totalscore fullpol fullapo
#   1   -0.63   -0.18    0.01    0.45   -0.04    0.00    0.00      -0.39    4.18   -0.39
#   2    5.24   -0.25    0.01   -2.04    0.03    0.00    0.00       2.99  -16.21    0.27
#   3   -7.46   -0.01    0.00    1.93    0.04    0.00    0.00      -5.49   23.18    0.54
#   4    0.15   -0.13    0.00   -0.09   -0.02    0.00    0.00      -0.09   -1.09   -0.28
#   5    1.74   -0.36    0.04   -0.96   -0.04    0.00    0.00       0.42   -5.48   -0.20
#   6   -1.88   -0.40    0.03    0.97   -0.01    0.00    0.00      -1.29    4.65   -0.04
#   7    5.99   -0.94    0.42   -2.48   -0.04    0.00    0.00       2.94   -9.99   -0.16
#   8    0.30   -0.35    0.02   -0.16   -0.06    0.00    0.00      -0.25   -0.89   -0.36
#   9    0.85   -0.89    0.27   -0.67   -0.08    0.00    0.00      -0.51   -2.48   -0.28
#  10    7.37   -0.65    0.05   -4.34    0.07    0.00    0.00       2.50  -16.56    0.25
#  11   -9.30   -0.01    0.00    3.73    0.07    0.00    0.00      -5.51   21.27    0.39
#  12   -0.34   -0.96    0.48    1.00   -0.10    0.00    0.00       0.08    3.81   -0.39
#  13    0.13   -1.39    0.31    0.85   -0.20    0.00    0.00      -0.29    2.61   -0.61
#  14    0.34   -1.65    0.39   -1.90   -0.18    0.00    0.00      -3.00   -5.44   -0.51
#  15    0.84   -1.42    0.19   -1.32   -0.17    0.00    0.00      -1.88   -3.33   -0.44
#  16    0.46   -1.52    0.18   -0.95   -0.25    0.00    0.00      -2.09   -1.77   -0.47
#  17    1.12   -2.10    0.53   -1.62   -0.27    0.00    0.00      -2.35   -2.86   -0.47
#  18    0.91   -2.60    1.21   -1.29   -0.26    0.00    0.00      -2.03   -2.34   -0.47
#  19    2.12   -2.04    0.53   -1.40   -0.26    0.00    0.00      -1.06   -2.61   -0.48
#  20   -1.30   -1.53    0.25    0.69   -0.33    0.00    0.00      -2.22    1.64   -0.78
#  21    6.52   -1.21    0.09   -6.38    0.34    0.00    0.00      -0.64  -17.12    0.91
#  22   -0.88   -0.52    0.06    0.41   -0.09    0.00    0.00      -1.01    1.77   -0.37
#  23    2.69   -0.50    0.02   -1.02   -0.06    0.00    0.00       1.13   -5.58   -0.30
#  24    0.78   -0.47    0.01   -0.48   -0.08    0.00    0.00      -0.25   -2.71   -0.45
#  25    0.67   -0.39    0.01   -0.74   -0.07    0.00    0.00      -0.52   -4.95   -0.47
#  26    0.16   -0.30    0.01   -0.36   -0.06    0.00    0.00      -0.55   -3.06   -0.47
#  27    0.43   -0.34    0.02   -0.54   -0.04    0.00    0.00      -0.47   -4.66   -0.37
#  28   -0.89   -0.42    0.03    0.83   -0.03    0.00    0.00      -0.49    5.69   -0.18
#  29    2.96   -0.31    0.01   -1.93    0.11    0.00    0.00       0.85  -13.06    0.77
#  30    1.69   -0.63    0.05   -1.54   -0.07    0.00    0.00      -0.49   -7.66   -0.36
#  31   -2.16   -1.08    0.13    1.46   -0.31    0.00    0.00      -1.96    4.61   -0.99
#  32    5.14   -2.02    0.60   -6.51    0.47    0.00    0.00      -2.32  -16.19    1.17
#  33   -0.13   -1.65    0.37   -0.04   -0.30    0.00    0.00      -1.75   -0.12   -0.80
#  34   -0.46   -2.64    1.29    0.27   -0.46    0.00    0.00      -2.00    0.57   -0.98
#  35    1.01   -2.30    0.84   -3.64    0.88    0.00    0.00      -3.20   -8.44    2.04
#  36   -0.19   -0.97    0.11   -0.13   -0.29    0.00    0.00      -1.47   -0.45   -0.97
#  37    0.38   -0.52    0.02   -0.45   -0.08    0.00    0.00      -0.64   -2.34   -0.39
#  38    0.21   -0.79    0.08   -0.38   -0.08    0.00    0.00      -0.97   -1.63   -0.36
#  39   -0.73   -0.06    0.00    0.38   -0.02    0.00    0.00      -0.41    6.04   -0.28
#  40   -0.62   -0.03    0.00    0.32   -0.01    0.00    0.00      -0.34    9.46   -0.28
#  41   -0.91   -0.02    0.00    0.16   -0.01    0.00    0.00      -0.77    5.59   -0.24
#  42   -1.04   -0.03    0.00    0.12    0.00    0.00    0.00      -0.95    4.00   -0.15
#  43   -1.28   -0.11    0.01    0.45   -0.03    0.00    0.00      -0.95    4.64   -0.28
#  44   -1.89   -0.20    0.04    1.53   -0.05    0.00    0.00      -0.56    8.92   -0.28
#  45   -4.22   -0.39    0.24    0.96   -0.04    0.00    0.00      -3.44    4.88   -0.18
#  46   -4.90   -0.72    0.82    3.12   -0.08    0.00    0.00      -1.76   10.76   -0.28
#  47   -2.99   -0.18    0.02    1.53   -0.05    0.00    0.00      -1.67    8.98   -0.28
#  48   -1.64   -0.05    0.00    0.24   -0.01    0.00    0.00      -1.46    5.04   -0.13
#  49   -2.37   -0.43    0.28    1.73   -0.05    0.00    0.00      -0.85    8.21   -0.26
#  50   -4.92   -0.67    0.67    4.16   -0.08    0.00    0.00      -0.85   13.37   -0.26
#  51    0.20   -0.58    0.91    1.86   -0.06    0.00    0.00       2.34    8.65   -0.28
#  52   -0.20   -0.33    0.15    2.20   -0.05    0.00    0.00       1.77   12.19   -0.27
#  53   -0.04   -0.44    0.16    1.93   -0.07    0.00    0.00       1.54    7.31   -0.28
#  54   -1.09   -0.29    0.02    1.04   -0.12    0.00    0.00      -0.45    2.44   -0.28
#  55   -0.61   -0.57    0.17    0.62   -0.15    0.00    0.00      -0.55    1.12   -0.28
#  56   -2.32   -0.96    1.54    0.66   -0.15    0.00    0.00      -1.24    1.22   -0.28
#  57   -2.57   -0.42    0.05    1.24   -0.15    0.00    0.00      -1.85    2.38   -0.28
#  58   -6.10   -0.02    0.00    2.99    0.11    0.00    0.00      -3.01   14.32    0.53
#  59   -3.51   -0.13    0.00    0.77   -0.03    0.00    0.00      -2.89    7.38   -0.27
#  60   -5.68   -0.45    0.45    0.82   -0.03    0.00    0.00      -4.89    4.08   -0.15
#  61   -2.62   -0.10    0.00    0.27   -0.02    0.00    0.00      -2.47    3.07   -0.28
#  62   -0.82   -0.08    0.00    0.12   -0.02    0.00    0.00      -0.80    1.63   -0.28
#  63   -0.19   -0.04    0.00    0.13   -0.01    0.00    0.00      -0.11    3.14   -0.28
#  64   -0.12   -0.04    0.00    0.32   -0.01    0.00    0.00       0.15    6.69   -0.24
#  65   -4.57   -0.18    0.01    2.15   -0.06    0.00    0.00      -2.65   10.34   -0.28
#  66  -10.19   -0.04    0.00    4.22    0.21    0.00    0.00      -5.80   11.63    0.59
#  67   -0.59   -0.72    0.36    0.87   -0.14    0.00    0.00      -0.22    1.77   -0.28
#  68   -0.28   -0.19    0.04    0.45   -0.05    0.00    0.00      -0.04    2.77   -0.28
#  69   -0.27   -0.05    0.00    0.33   -0.01    0.00    0.00       0.01    7.14   -0.24

@<TRIPOS>MOLECULE
          T539461        72
   69    75     0     0     0



@<TRIPOS>ATOM
      1 C1          6.7545    -7.8931    87.4285 C.3        1           0.0860
      2 N1          7.0952    -7.6169    88.8301 N.4        1          -0.3816
      3 H1          7.9219    -7.0396    88.8647 H          1           0.4211
      4 C2          7.3614    -8.8845    89.5228 C.3        1          -0.0160
      5 C3          7.7595    -8.6083    90.9721 C.3        1          -0.1286
      6 C4          6.6038    -7.8846    91.6822 C.3        1           0.0988
      7 C5          6.3289    -6.5866    90.9256 C.3        1          -0.1947
      8 C6          5.9808    -6.9080    89.4707 C.3        1          -0.0163
      9 C7          7.0129    -7.6042    93.1331 C.3        1          -0.0380
     10 N2          5.9398    -7.4506    94.1124 N.4        1          -0.3826
     11 H2          6.3495    -6.9869    94.9388 H          1           0.4204
     12 C8          5.4259    -8.7422    94.5720 C.3        1           0.0669
     13 C9          6.3526    -9.3087    95.6165 C.2        1          -0.0229
     14 C10         6.7796   -10.5807    95.6596 C.2        1          -0.1141
     15 C11         7.6562   -10.6989    96.8273 C.ar       1          -0.1253
     16 C12         8.3872   -11.7470    97.3898 C.ar       1          -0.0605
     17 C13         9.1293   -11.5285    98.5160 C.ar       1          -0.1325
     18 C14         9.1625   -10.2723    99.1059 C.ar       1          -0.0665
     19 C15         8.4489    -9.2242    98.5677 C.ar       1          -0.1375
     20 C16         7.6865    -9.4240    97.4211 C.ar       1           0.1215
     21 N3          6.8882    -8.6014    96.6583 N.pl3      1          -0.5941
     22 C17         4.8786    -6.5810    93.6210 C.3        1           0.0351
     23 C18         3.8770    -7.2555    92.7312 C.ar       1          -0.1800
     24 C19         2.5488    -6.8608    92.8612 C.ar       1          -0.0585
     25 C20         1.5657    -7.4213    92.0741 C.ar       1          -0.1051
     26 C21         1.8993    -8.3878    91.1430 C.ar       1          -0.0639
     27 C22         3.2105    -8.7892    91.0130 C.ar       1          -0.1375
     28 C23         4.2096    -8.2311    91.8140 C.ar       1           0.0985
     29 O1          5.4614    -8.7233    91.6505 O.3        1          -0.2982
     30 C24         6.4934    -6.5945    86.7097 C.2        1          -0.2763
     31 C25         7.2386    -5.4776    86.7797 C.2        1           0.1472
     32 N4          6.6934    -4.5026    85.9922 N.pl3      1          -0.5613
     33 C26         5.5566    -4.9766    85.3800 C.ar       1           0.0332
     34 C27         4.6286    -4.4364    84.4994 C.ar       1           0.1436
     35 N5          3.6135    -5.1619    84.0769 N.ar       1          -0.4564
     36 C28         3.4257    -6.4146    84.4583 C.ar       1           0.0903
     37 C29         4.2862    -7.0305    85.3228 C.ar       1          -0.1570
     38 C30         5.3870    -6.3123    85.8002 C.ar       1          -0.0613
     39 H3          7.5833    -8.4137    86.9489 H          1           0.1351
     40 H4          5.8613    -8.5167    87.3878 H          1           0.1403
     41 H5          6.4662    -9.5052    89.5003 H          1           0.1385
     42 H6          8.1745    -9.4071    89.0167 H          1           0.1513
     43 H7          7.9614    -9.5471    91.4863 H          1           0.1339
     44 H8          8.6450    -7.9743    90.9983 H          1           0.1167
     45 H9          5.4957    -6.0529    91.3798 H          1           0.1145
     46 H10         7.2191    -5.9548    90.9533 H          1           0.1203
     47 H11         5.7893    -5.9784    88.9326 H          1           0.1457
     48 H12         5.0881    -7.5317    89.4384 H          1           0.1413
     49 H13         7.6740    -8.4157    93.4631 H          1           0.1506
     50 H14         7.6193    -6.6877    93.1399 H          1           0.1513
     51 H15         4.4335    -8.6062    95.0020 H          1           0.1438
     52 H16         5.3651    -9.4299    93.7286 H          1           0.1580
     53 H17         6.5251   -11.3676    94.9651 H          1           0.1573
     54 H18         8.3659   -12.7271    96.9365 H          1           0.1313
     55 H19         9.6942   -12.3398    98.9510 H          1           0.1355
     56 H20         9.7534   -10.1153    99.9963 H          1           0.1383
     57 H21         8.4809    -8.2507    99.0342 H          1           0.1288
     58 H22         6.7278    -7.6611    96.8342 H          1           0.4163
     59 H23         4.3387    -6.1739    94.4892 H          1           0.1457
     60 H24         5.3176    -5.7306    93.0958 H          1           0.1385
     61 H25         2.2896    -6.1052    93.5883 H          1           0.1427
     62 H26         0.5377    -7.1074    92.1826 H          1           0.1481
     63 H27         1.1334    -8.8264    90.5206 H          1           0.1491
     64 H28         3.4722    -9.5439    90.2851 H          1           0.1425
     65 H29         8.1356    -5.3670    87.3710 H          1           0.1887
     66 H30         7.0544    -3.6091    85.8816 H          1           0.4356
     67 H31         4.7395    -3.4172    84.1597 H          1           0.1663
     68 H32         2.5749    -6.9615    84.0792 H          1           0.1648
     69 H33         4.1221    -8.0536    85.6276 H          1           0.1332
@<TRIPOS>BOND
     1    1    2 1
     2    1   30 1
     3    1   39 1
     4    1   40 1
     5    2    3 1
     6    2    8 1
     7    2    4 1
     8    4    5 1
     9    4   41 1
    10    4   42 1
    11    5    6 1
    12    5   43 1
    13    5   44 1
    14    6   29 1
    15    6    7 1
    16    6    9 1
    17    7    8 1
    18    7   45 1
    19    7   46 1
    20    8   47 1
    21    8   48 1
    22    9   10 1
    23    9   49 1
    24    9   50 1
    25   10   11 1
    26   10   12 1
    27   10   22 1
    28   12   13 1
    29   12   51 1
    30   12   52 1
    31   13   21 1
    32   13   14 2
    33   14   15 1
    34   14   53 1
    35   15   20 ar
    36   15   16 ar
    37   16   17 ar
    38   16   54 1
    39   17   18 ar
    40   17   55 1
    41   18   19 ar
    42   18   56 1
    43   19   20 ar
    44   19   57 1
    45   20   21 1
    46   21   58 1
    47   22   23 1
    48   22   59 1
    49   22   60 1
    50   23   28 ar
    51   23   24 ar
    52   24   25 ar
    53   24   61 1
    54   25   26 ar
    55   25   62 1
    56   26   27 ar
    57   26   63 1
    58   27   28 ar
    59   27   64 1
    60   28   29 1
    61   30   38 1
    62   30   31 2
    63   31   32 1
    64   31   65 1
    65   32   33 1
    66   32   66 1
    67   33   38 ar
    68   33   34 ar
    69   34   35 ar
    70   34   67 1
    71   35   36 ar
    72   36   37 ar
    73   36   68 1
    74   37   38 ar
    75   37   69 1
##########                 Name:              T541339
##########          Protonation:                   51
##########               SMILES:   c1ccc(cc1)C[NH+]2CC[C@@H](CC2)[NH2+]Cc3c(cccc3)c4cc(ccc4)C[NH2+]C5CCCC5
##########            Long Name:   1-ium-4-yl)-[[2-[3-[(cyclopentylammonio)methyl]phenyl]phenyl]methyl]ammonium
##########          FlexRecCode: 1
##########               Number:                  391
##########   Ligand Source File: /raidb/db2/rgc/tcams/tcams-0002092.db2.gz
##########           GlobalRank: 27
##########                 Rank:                    1
##########               Setnum:                  171
##########             Matchnum:                 4527
##########                Cloud:                    1
##########        Electrostatic:           -63.768211
##########        Van der Waals:           -24.022762
##########  Ligand Polar Desolv:            21.281990
########## Ligand Apolar Desolv:            -4.931948
##########      Internal Energy:             0.000000
##########      Receptor Energy: 0.0
########## Receptor Desolvation:             0.000000
########## Receptor Hydrophobic:             0.000000
##########         Total Energy: -71.44
##########        Ligand Charge:             3.000000
##########            Arbitrary:    +999.9990
##########     heavy atom count:   34
##########           pose count:    1
##########        Ligand Energy:             0.000000
# num electro vdwattr vdwrepu polsolv apolsol rdesolv rhydroe totalscore fullpol fullapo
#   1   -0.80   -0.55    0.03    0.71   -0.13    0.00    0.00      -0.74    2.26   -0.40
#   2   12.36   -1.27    0.18  -10.87    0.24    0.00    0.00       0.64  -26.05    0.58
#   3  -11.66   -0.04    0.00    8.70    0.20    0.00    0.00      -2.80   24.45    0.56
#   4   -9.35   -0.03    0.00    8.13    0.18    0.00    0.00      -1.06   24.36    0.55
#   5   -0.48   -1.19    0.26    1.85   -0.13    0.00    0.00       0.31    4.03   -0.29
#   6    3.18   -1.05    0.19   -2.40   -0.10    0.00    0.00      -0.19   -5.22   -0.22
#   7    3.01   -1.40    0.27   -3.34   -0.18    0.00    0.00      -1.64   -5.44   -0.29
#   8    3.16   -1.86    0.47   -3.54   -0.20    0.00    0.00      -1.97   -5.20   -0.29
#   9    3.62   -1.82    0.44   -3.41   -0.16    0.00    0.00      -1.33   -5.82   -0.27
#  10    3.34   -0.89    0.05   -1.54   -0.11    0.00    0.00       0.86   -5.23   -0.37
#  11    1.75   -0.65    0.02   -0.73   -0.11    0.00    0.00       0.28   -2.93   -0.43
#  12    1.73   -0.78    0.04   -0.95   -0.08    0.00    0.00      -0.05   -3.45   -0.28
#  13    3.61   -1.99    1.02   -1.73   -0.15    0.00    0.00       0.76   -4.27   -0.37
#  14    4.26   -3.16    1.61   -3.19   -0.22    0.00    0.00      -0.70   -6.80   -0.47
#  15    2.20   -2.51    1.70   -1.63   -0.18    0.00    0.00      -0.42   -4.02   -0.45
#  16    0.59   -0.80    0.05   -0.09   -0.10    0.00    0.00      -0.35   -0.33   -0.37
#  17    1.36   -1.17    0.10   -2.00   -0.17    0.00    0.00      -1.89   -5.37   -0.46
#  18    0.69   -1.51    0.21   -2.43   -0.19    0.00    0.00      -3.24   -5.92   -0.47
#  19    0.70   -1.31    0.18   -2.30   -0.16    0.00    0.00      -2.91   -6.71   -0.47
#  20    0.59   -1.13    0.21   -0.97   -0.13    0.00    0.00      -1.43   -3.46   -0.45
#  21    1.90   -0.83    0.10   -1.11   -0.09    0.00    0.00      -0.03   -4.42   -0.37
#  22   -0.43   -0.36    0.02    0.51   -0.07    0.00    0.00      -0.33    2.51   -0.34
#  23   13.54   -0.84    0.21   -7.45    0.15    0.00    0.00       5.60  -30.94    0.61
#  24  -17.70   -0.04    0.00    6.76    0.11    0.00    0.00     -10.86   29.03    0.49
#  25   -9.34   -0.02    0.00    6.15    0.07    0.00    0.00      -3.14   29.97    0.35
#  26   -0.30   -0.46    0.06    0.62   -0.05    0.00    0.00      -0.14    3.10   -0.27
#  27    1.91   -0.15    0.00   -1.02   -0.02    0.00    0.00       0.72  -10.57   -0.22
#  28    0.25   -0.18    0.01   -0.21   -0.04    0.00    0.00      -0.18   -1.90   -0.37
#  29    4.62   -0.29    0.01   -3.21    0.04    0.00    0.00       1.17  -21.64    0.27
#  30   -4.56    0.00    0.00    1.02    0.02    0.00    0.00      -3.52   25.58    0.54
#  31   -0.32   -0.26    0.02    0.46   -0.05    0.00    0.00      -0.14    3.54   -0.36
#  32    0.75   -0.28    0.01   -0.44   -0.03    0.00    0.00       0.01   -4.30   -0.33
#  33    0.16   -0.20    0.00   -0.31   -0.04    0.00    0.00      -0.38   -3.90   -0.45
#  34    0.21   -0.35    0.02   -0.83   -0.07    0.00    0.00      -1.02   -5.78   -0.47
#  35    0.16   -0.66    0.08   -1.04   -0.09    0.00    0.00      -1.56   -5.26   -0.47
#  36    0.54   -0.71    0.06   -1.44   -0.12    0.00    0.00      -1.68   -5.57   -0.47
#  37    0.74   -0.53    0.02   -0.66   -0.09    0.00    0.00      -0.52   -2.73   -0.36
#  38    0.69   -0.70    0.12   -0.85   -0.09    0.00    0.00      -0.82   -3.26   -0.33
#  39    4.91   -1.02    0.36   -2.54   -0.07    0.00    0.00       1.64   -9.12   -0.24
#  40   -3.25   -0.17    0.01    1.84   -0.05    0.00    0.00      -1.63    9.60   -0.28
#  41   -2.04   -0.13    0.01    1.47   -0.03    0.00    0.00      -0.73   10.82   -0.24
#  42   -4.95   -0.77    1.19    3.16   -0.10    0.00    0.00      -1.49    8.81   -0.28
#  43   -1.42   -0.29    0.04    1.97   -0.08    0.00    0.00       0.21    6.77   -0.27
#  44   -2.13   -0.49    0.33    1.70   -0.08    0.00    0.00      -0.68    5.76   -0.28
#  45   -2.12   -0.77    0.53    0.39   -0.14    0.00    0.00      -2.11    0.77   -0.28
#  46   -2.07   -0.46    0.09    0.36   -0.13    0.00    0.00      -2.20    0.78   -0.28
#  47   -1.85   -0.88    0.51    1.11   -0.13    0.00    0.00      -1.24    2.36   -0.28
#  48   -2.20   -0.95    0.74   -0.39   -0.15    0.00    0.00      -2.95   -0.71   -0.28
#  49   -2.70   -0.73    0.34    1.15   -0.16    0.00    0.00      -2.11    1.99   -0.28
#  50   -2.16   -0.91    0.44    2.74   -0.15    0.00    0.00      -0.03    5.05   -0.27
#  51   -1.74   -0.14    0.01    1.16   -0.03    0.00    0.00      -0.75    9.73   -0.28
#  52   -6.86   -0.77    1.41    2.16   -0.09    0.00    0.00      -4.15    5.89   -0.25
#  53   -7.69   -1.36    1.38    2.32   -0.16    0.00    0.00      -5.51    4.09   -0.28
#  54   -3.34   -1.37    4.95    2.77   -0.11    0.00    0.00       2.91    6.88   -0.28
#  55   -2.39   -0.31    0.04    1.55   -0.09    0.00    0.00      -1.20    4.67   -0.28
#  56   -1.55   -0.45    0.12    0.49   -0.10    0.00    0.00      -1.49    1.40   -0.28
#  57   -0.94   -0.23    0.02    0.51   -0.07    0.00    0.00      -0.71    2.20   -0.28
#  58   -0.85   -0.18    0.02    1.48   -0.04    0.00    0.00       0.43    9.39   -0.28
#  59   -1.08   -0.10    0.01    1.19   -0.02    0.00    0.00       0.00   12.10   -0.21
#  60   -2.17   -0.08    0.00    0.69   -0.01    0.00    0.00      -1.58    8.81   -0.17
#  61   -3.95   -0.13    0.01    1.31   -0.03    0.00    0.00      -2.79   11.25   -0.28
#  62   -1.01   -0.04    0.00    0.32   -0.01    0.00    0.00      -0.73    8.77   -0.21
#  63   -1.25   -0.03    0.00    0.23   -0.01    0.00    0.00      -1.05    6.91   -0.28
#  64   -1.34   -0.10    0.01    1.19   -0.02    0.00    0.00      -0.26   12.75   -0.22
#  65   -0.98   -0.03    0.00    0.26   -0.01    0.00    0.00      -0.76    8.69   -0.28
#  66   -1.08   -0.23    0.09    1.71   -0.04    0.00    0.00       0.45   11.93   -0.28
#  67   -0.66   -0.04    0.00    0.37   -0.01    0.00    0.00      -0.35    8.32   -0.27
#  68   -0.21   -0.02    0.00    0.19   -0.01    0.00    0.00      -0.06    6.62   -0.28
#  69   -0.27   -0.07    0.00    0.10   -0.02    0.00    0.00      -0.26    1.34   -0.28
#  70   -0.32   -0.25    0.09    0.13   -0.05    0.00    0.00      -0.40    0.71   -0.28
#  71   -1.71   -0.25    0.04    0.83   -0.07    0.00    0.00      -1.16    3.29   -0.28
#  72   -1.22   -0.17    0.01    2.44   -0.06    0.00    0.00       1.00   11.11   -0.28
#  73   -2.72   -0.48    0.33    3.83   -0.07    0.00    0.00       0.89   13.45   -0.23
#  74   -3.47   -0.22    0.04    1.24   -0.04    0.00    0.00      -2.45    6.03   -0.20
#  75   -3.45   -0.16    0.01    1.08   -0.05    0.00    0.00      -2.56    6.51   -0.28
#  76   -6.22   -1.47    3.27    3.58   -0.10    0.00    0.00      -0.94   10.02   -0.28

@<TRIPOS>MOLECULE
          T541339        51
   76    80     0     0     0



@<TRIPOS>ATOM
      1 C1          0.5883    -5.3867    93.6441 C.3        1           0.0388
      2 N1         -0.1093    -4.1865    94.1244 N.4        1          -0.5064
      3 H1          0.1002    -4.0438    95.1011 H          1           0.4302
      4 H2          0.1971    -3.3845    93.5942 H          1           0.4259
      5 C2         -1.5580    -4.3612    93.9546 C.3        1           0.0184
      6 C3         -1.9729    -3.9922    92.5315 C.3        1          -0.1407
      7 C4         -2.8689    -2.7500    92.6644 C.3        1          -0.1268
      8 C5         -2.3882    -2.1346    93.9944 C.3        1          -0.1324
      9 C6         -2.3172    -3.3979    94.8626 C.3        1          -0.1459
     10 C7          2.0744    -5.2073    93.8181 C.ar       1          -0.1500
     11 C8          2.8362    -6.2343    94.3382 C.ar       1          -0.0904
     12 C9          4.2100    -6.0672    94.4980 C.ar       1          -0.0708
     13 C10         4.8075    -4.8627    94.1316 C.ar       1          -0.0915
     14 C11         4.0364    -3.8426    93.6127 C.ar       1          -0.1022
     15 C12         2.6734    -4.0159    93.4512 C.ar       1          -0.0784
     16 C13         5.0340    -7.1675    95.0570 C.ar       1          -0.0359
     17 C14         5.2360    -7.2603    96.4327 C.ar       1          -0.0959
     18 C15         6.0032    -8.2856    96.9471 C.ar       1          -0.0705
     19 C16         6.5716    -9.2198    96.0998 C.ar       1          -0.0995
     20 C17         6.3743    -9.1325    94.7338 C.ar       1          -0.0820
     21 C18         5.6036    -8.1146    94.2088 C.ar       1          -0.1603
     22 C19         5.3839    -8.0246    92.7207 C.3        1           0.0302
     23 N2          6.4451    -7.2072    92.1176 N.4        1          -0.5132
     24 H3          6.4243    -6.2809    92.5173 H          1           0.4304
     25 H4          7.3419    -7.6322    92.3003 H          1           0.4158
     26 C20         6.2311    -7.1194    90.6669 C.3        1           0.0130
     27 C21         6.2722    -8.5237    90.0575 C.3        1          -0.1695
     28 C22         7.6622    -9.1264    90.2721 C.3        1          -0.0252
     29 N3          8.6716    -8.2804    89.6241 N.4        1          -0.3856
     30 H5          8.4504    -8.1850    88.6443 H          1           0.4351
     31 C23         9.9948    -8.9022    89.7674 C.3        1           0.0439
     32 C24        10.9297    -8.3393    88.7282 C.ar       1          -0.1759
     33 C25        11.0300    -8.9433    87.4888 C.ar       1          -0.0890
     34 C26        11.8875    -8.4270    86.5357 C.ar       1          -0.1064
     35 C27        12.6445    -7.3062    86.8215 C.ar       1          -0.0731
     36 C28        12.5437    -6.7016    88.0605 C.ar       1          -0.1115
     37 C29        11.6829    -7.2154    89.0123 C.ar       1          -0.1038
     38 C30         8.6871    -6.9537    90.2521 C.3        1          -0.0322
     39 C31         7.3365    -6.2675    90.0367 C.3        1          -0.1640
     40 H6          0.2573    -6.2529    94.2169 H          1           0.1428
     41 H7          0.3620    -5.5407    92.5891 H          1           0.1386
     42 H8         -1.8413    -5.3905    94.1746 H          1           0.1462
     43 H9         -1.0932    -3.7591    91.9316 H          1           0.0834
     44 H10        -2.5304    -4.8115    92.0776 H          1           0.0967
     45 H11        -2.7025    -2.0614    91.8361 H          1           0.0908
     46 H12        -3.9193    -3.0345    92.7263 H          1           0.0871
     47 H13        -1.4067    -1.6733    93.8853 H          1           0.0783
     48 H14        -3.1155    -1.4243    94.3877 H          1           0.0926
     49 H15        -3.3152    -3.7754    95.0848 H          1           0.1079
     50 H16        -1.7627    -3.2091    95.7818 H          1           0.0861
     51 H17         2.3680    -7.1656    94.6209 H          1           0.1396
     52 H18         5.8722    -4.7277    94.2539 H          1           0.1416
     53 H19         4.4985    -2.9087    93.3284 H          1           0.1480
     54 H20         2.0744    -3.2165    93.0409 H          1           0.1432
     55 H21         4.7933    -6.5311    97.0950 H          1           0.1369
     56 H22         6.1604    -8.3585    98.0132 H          1           0.1461
     57 H23         7.1719   -10.0203    96.5066 H          1           0.1459
     58 H24         6.8204    -9.8646    94.0769 H          1           0.1380
     59 H25         5.4064    -9.0252    92.2889 H          1           0.1464
     60 H26         4.4152    -7.5655    92.5236 H          1           0.1475
     61 H27         5.2613    -6.6630    90.4685 H          1           0.1701
     62 H28         5.5244    -9.1524    90.5408 H          1           0.1396
     63 H29         6.0626    -8.4633    88.9896 H          1           0.1428
     64 H30         7.8707    -9.1866    91.3402 H          1           0.1224
     65 H31         7.6951   -10.1263    89.8394 H          1           0.1634
     66 H32        10.3887    -8.6931    90.7621 H          1           0.1373
     67 H33         9.9063    -9.9801    89.6309 H          1           0.1476
     68 H34        10.4384    -9.8190    87.2655 H          1           0.1341
     69 H35        11.9663    -8.8994    85.5676 H          1           0.1424
     70 H36        13.3150    -6.9031    86.0769 H          1           0.1420
     71 H37        13.1353    -5.8262    88.2839 H          1           0.1388
     72 H38        11.6012    -6.7408    89.9790 H          1           0.1262
     73 H39         8.8737    -7.0603    91.3208 H          1           0.1208
     74 H40         9.4766    -6.3497    89.8048 H          1           0.1613
     75 H41         7.1491    -6.1603    88.9684 H          1           0.1416
     76 H42         7.3495    -5.2835    90.5053 H          1           0.1334
@<TRIPOS>BOND
     1    1    2 1
     2    1   10 1
     3    1   40 1
     4    1   41 1
     5    2    3 1
     6    2    4 1
     7    2    5 1
     8    5    9 1
     9    5    6 1
    10    5   42 1
    11    6    7 1
    12    6   43 1
    13    6   44 1
    14    7    8 1
    15    7   45 1
    16    7   46 1
    17    8    9 1
    18    8   47 1
    19    8   48 1
    20    9   49 1
    21    9   50 1
    22   10   15 ar
    23   10   11 ar
    24   11   12 ar
    25   11   51 1
    26   12   13 ar
    27   12   16 1
    28   13   14 ar
    29   13   52 1
    30   14   15 ar
    31   14   53 1
    32   15   54 1
    33   16   21 ar
    34   16   17 ar
    35   17   18 ar
    36   17   55 1
    37   18   19 ar
    38   18   56 1
    39   19   20 ar
    40   19   57 1
    41   20   21 ar
    42   20   58 1
    43   21   22 1
    44   22   23 1
    45   22   59 1
    46   22   60 1
    47   23   24 1
    48   23   25 1
    49   23   26 1
    50   26   39 1
    51   26   27 1
    52   26   61 1
    53   27   28 1
    54   27   62 1
    55   27   63 1
    56   28   29 1
    57   28   64 1
    58   28   65 1
    59   29   30 1
    60   29   31 1
    61   29   38 1
    62   31   32 1
    63   31   66 1
    64   31   67 1
    65   32   37 ar
    66   32   33 ar
    67   33   34 ar
    68   33   68 1
    69   34   35 ar
    70   34   69 1
    71   35   36 ar
    72   35   70 1
    73   36   37 ar
    74   36   71 1
    75   37   72 1
    76   38   39 1
    77   38   73 1
    78   38   74 1
    79   39   75 1
    80   39   76 1
##########                 Name:              T542881
##########          Protonation:                   23
##########               SMILES:   c1ccc(cc1)c2c(cccc2)CNc3nc(nc([nH+]3)N4CC[C@@H](CC4)[NH3+])NCCc5ccc(cc5)O
##########            Long Name:   [(2-phenylphenyl)methylamino]-1,3,5-triazin-1-ium-2-yl]-4-piperidyl]ammonium
##########          FlexRecCode: 1
##########               Number:                   41
##########   Ligand Source File: /raidb/db2/rgc/tcams/tcams-0002371.db2.gz
##########           GlobalRank: 28
##########                 Rank:                    1
##########               Setnum:                   85
##########             Matchnum:                 3421
##########                Cloud:                    1
##########        Electrostatic:           -60.035065
##########        Van der Waals:           -31.990597
##########  Ligand Polar Desolv:            24.595949
########## Ligand Apolar Desolv:            -3.862338
##########      Internal Energy:             0.000000
##########      Receptor Energy: 0.0
########## Receptor Desolvation:             0.000000
########## Receptor Hydrophobic:             0.000000
##########         Total Energy: -71.29
##########        Ligand Charge:             2.000000
##########            Arbitrary:    +999.9990
##########     heavy atom count:   37
##########           pose count:    1
##########        Ligand Energy:             0.000000
# num electro vdwattr vdwrepu polsolv apolsol rdesolv rhydroe totalscore fullpol fullapo
#   1   22.73   -2.42    1.77  -14.32    0.33    0.00    0.00       8.10  -31.92    0.74
#   2  -16.69   -0.06    0.00    9.47    0.23    0.00    0.00      -7.05   24.00    0.58
#   3  -13.91   -0.03    0.00    7.44    0.18    0.00    0.00      -6.32   23.56    0.58
#   4  -18.81   -0.07    0.00   11.49    0.27    0.00    0.00      -7.12   24.65    0.58
#   5   -0.64   -0.81    0.08    1.12   -0.11    0.00    0.00      -0.37    2.90   -0.29
#   6    5.84   -1.72    0.78   -3.02   -0.10    0.00    0.00       1.79   -7.42   -0.24
#   7   -3.51   -1.87    1.27    1.01   -0.16    0.00    0.00      -3.26    2.94   -0.47
#   8   10.48   -0.64    0.04   -4.17    0.34    0.00    0.00       6.06  -20.53    1.68
#   9   -1.24   -0.28    0.01    0.58   -0.08    0.00    0.00      -1.00    3.72   -0.48
#  10    2.46   -0.46    0.04   -1.59   -0.06    0.00    0.00       0.40   -6.71   -0.24
#  11  -12.60   -0.47    0.03    3.90   -0.78    0.00    0.00      -9.92   23.33   -4.66
#  12   14.94   -0.77    0.10   -4.47    0.21    0.00    0.00      10.02  -21.29    0.99
#  13  -12.96   -0.02    0.00    4.25    0.07    0.00    0.00      -8.66   18.47    0.31
#  14  -12.56   -0.48    0.03    3.54   -0.79    0.00    0.00     -10.27   21.46   -4.81
#  15   12.24   -0.53    0.02   -3.79    0.33    0.00    0.00       8.28  -19.66    1.70
#  16   -1.23   -0.48    0.07    0.82   -0.06    0.00    0.00      -0.89    4.29   -0.33
#  17    1.88   -0.67    0.04   -0.47   -0.08    0.00    0.00       0.69   -2.09   -0.37
#  18    1.33   -0.70    0.03   -0.52   -0.12    0.00    0.00       0.02   -1.93   -0.45
#  19    3.01   -1.43    0.43   -1.00   -0.17    0.00    0.00       0.85   -2.84   -0.47
#  20    2.67   -2.28    1.22   -1.05   -0.21    0.00    0.00       0.34   -2.34   -0.47
#  21    2.66   -1.68    0.24   -1.14   -0.20    0.00    0.00      -0.12   -2.57   -0.46
#  22    0.50   -0.90    0.04   -0.22   -0.13    0.00    0.00      -0.72   -0.63   -0.38
#  23    1.29   -1.12    0.09   -0.41   -0.12    0.00    0.00      -0.27   -1.14   -0.34
#  24    1.68   -1.34    0.16   -0.98   -0.18    0.00    0.00      -0.66   -2.49   -0.46
#  25    1.93   -1.79    0.75   -1.22   -0.21    0.00    0.00      -0.54   -2.78   -0.47
#  26    2.81   -2.57    1.66   -1.44   -0.23    0.00    0.00       0.24   -2.98   -0.47
#  27    4.43   -2.55    0.83   -1.37   -0.25    0.00    0.00       1.09   -2.63   -0.47
#  28    4.22   -1.73    0.33   -1.16   -0.17    0.00    0.00       1.50   -2.57   -0.37
#  29    6.41   -0.40    0.02   -2.77    0.30    0.00    0.00       3.56  -18.08    1.96
#  30   -6.39   -0.28    0.01    2.19   -0.58    0.00    0.00      -5.05   18.02   -4.81
#  31    3.55   -0.30    0.01   -2.12    0.21    0.00    0.00       1.36  -17.04    1.73
#  32   -0.50   -0.50    0.10    0.73   -0.09    0.00    0.00      -0.26    3.68   -0.43
#  33    0.67   -0.70    0.28   -0.40   -0.05    0.00    0.00      -0.20   -1.79   -0.23
#  34    0.75   -1.07    0.14   -0.42   -0.11    0.00    0.00      -0.71   -1.35   -0.36
#  35    1.03   -1.46    0.27   -0.59   -0.18    0.00    0.00      -0.93   -1.50   -0.46
#  36    1.62   -2.03    0.54   -1.08   -0.23    0.00    0.00      -1.18   -2.14   -0.46
#  37   -0.73   -1.99    0.36    0.15   -0.17    0.00    0.00      -2.37    0.28   -0.31
#  38    3.41   -3.08    1.30   -2.74    0.74    0.00    0.00      -0.37   -4.43    1.19
#  39    0.62   -1.99    0.52   -0.90   -0.20    0.00    0.00      -1.95   -2.13   -0.46
#  40    0.51   -1.23    0.14   -0.51   -0.16    0.00    0.00      -1.25   -1.52   -0.46
#  41    7.43   -0.24    0.00   -2.02    0.19    0.00    0.00       5.37  -19.37    1.84
#  42   -3.24   -0.29    0.04    2.40   -0.08    0.00    0.00      -1.16    8.46   -0.28
#  43   -3.39   -0.55    0.41    1.57   -0.09    0.00    0.00      -2.06    4.83   -0.28
#  44   -5.63   -1.05    0.84    3.70   -0.14    0.00    0.00      -2.27    7.52   -0.28
#  45   -4.75   -1.44    2.72    1.93   -0.08    0.00    0.00      -1.61    5.07   -0.20
#  46   -2.77   -1.08    3.17    1.77   -0.08    0.00    0.00       1.00    5.93   -0.28
#  47   -0.93   -0.04    0.00    0.12   -0.01    0.00    0.00      -0.86    2.45   -0.24
#  48   -0.51   -0.10    0.01    0.43   -0.03    0.00    0.00      -0.21    4.32   -0.28
#  49   -1.54   -0.30    0.15    1.00   -0.05    0.00    0.00      -0.74    5.58   -0.28
#  50   -1.39   -0.08    0.00    0.25   -0.02    0.00    0.00      -1.24    3.92   -0.28
#  51  -10.79   -0.01    0.00    1.68    0.09    0.00    0.00      -9.03   11.33    0.58
#  52   -0.05   -0.24    0.08    0.78   -0.03    0.00    0.00       0.54    5.08   -0.17
#  53   -0.81   -0.17    0.03    0.79   -0.03    0.00    0.00      -0.19    6.11   -0.27
#  54   -1.10   -0.11    0.00    0.51   -0.03    0.00    0.00      -0.72    4.97   -0.28
#  55   -4.35   -0.43    0.18    0.71   -0.09    0.00    0.00      -3.98    2.21   -0.28
#  56   -5.23   -1.04    1.46    0.61   -0.13    0.00    0.00      -4.34    1.32   -0.28
#  57   -3.62   -0.67    0.24    0.58   -0.13    0.00    0.00      -3.59    1.23   -0.28
#  58   -1.42   -0.33    0.05    0.48   -0.10    0.00    0.00      -1.32    1.40   -0.28
#  59   -2.00   -0.29    0.04    0.49   -0.09    0.00    0.00      -1.85    1.57   -0.28
#  60   -3.12   -0.66    0.30    1.38   -0.14    0.00    0.00      -2.24    2.70   -0.28
#  61   -5.69   -0.89    0.67    3.04   -0.16    0.00    0.00      -3.03    5.42   -0.28
#  62   -5.01   -0.41    0.10    2.21   -0.09    0.00    0.00      -3.20    5.82   -0.24
#  63   -1.97    0.00    0.00    0.39    0.02    0.00    0.00      -1.57   12.22    0.58
#  64   -0.06   -0.34    0.21    0.27   -0.05    0.00    0.00       0.03    1.59   -0.28
#  65   -0.35   -0.17    0.03    0.23   -0.04    0.00    0.00      -0.31    1.50   -0.28
#  66   -0.61   -0.21    0.09    0.33   -0.04    0.00    0.00      -0.44    2.55   -0.28
#  67   -0.90   -0.43    0.46    0.49   -0.05    0.00    0.00      -0.42    2.69   -0.28
#  68   -1.90   -0.40    0.17    0.87   -0.08    0.00    0.00      -1.34    3.22   -0.28
#  69   -2.31   -0.73    0.70    0.67   -0.14    0.00    0.00      -1.82    1.30   -0.28
#  70   -4.55   -0.10    0.02    3.14    0.74    0.00    0.00      -0.75    5.19    1.22
#  71   -0.51   -0.81    0.76    0.44   -0.10    0.00    0.00      -0.22    1.23   -0.28
#  72   -0.90   -0.20    0.02    0.58   -0.05    0.00    0.00      -0.56    3.06   -0.28

@<TRIPOS>MOLECULE
          T542881        23
   72    76     0     0     0



@<TRIPOS>ATOM
      1 N1          9.7953    -4.6335    86.4529 N.4        1          -0.6363
      2 H1         10.0352    -5.0194    85.5519 H          1           0.4437
      3 H2         10.4751    -4.9295    87.1372 H          1           0.4362
      4 H3          9.7911    -3.6261    86.3969 H          1           0.4418
      5 C1          8.4627    -5.1075    86.8496 C.3        1           0.0247
      6 C2          8.0986    -4.5208    88.2153 C.3        1          -0.1623
      7 C3          6.6945    -4.9894    88.6100 C.3        1           0.1069
      8 N2          6.6523    -6.4569    88.5531 N.pl3      1          -0.5763
      9 C4          7.0697    -7.1283    87.3146 C.3        1           0.1235
     10 C5          8.4696    -6.6356    86.9344 C.3        1          -0.1633
     11 C6          6.2292    -7.1910    89.6425 C.ar       1           0.6943
     12 N3          5.3322    -6.6803    90.4804 N.ar       1          -0.6377
     13 H4          4.9750    -5.7917    90.3260 H          1           0.4320
     14 C7          4.9246    -7.3871    91.5296 C.ar       1           0.6929
     15 N4          3.9932    -6.8571    92.3992 N.pl3      1          -0.6442
     16 C8          3.5442    -7.6364    93.5556 C.3        1           0.1341
     17 C9          2.5343    -6.8372    94.3385 C.ar       1          -0.1266
     18 C10         1.1900    -6.9431    94.0436 C.ar       1          -0.0870
     19 C11         0.2623    -6.2103    94.7611 C.ar       1          -0.1123
     20 C12         0.6753    -5.3678    95.7777 C.ar       1          -0.0853
     21 C13         2.0168    -5.2545    96.0812 C.ar       1          -0.1029
     22 C14         2.9555    -5.9943    95.3645 C.ar       1          -0.0234
     23 C15         4.3988    -5.8805    95.6898 C.ar       1          -0.0549
     24 C16         4.9743    -6.7366    96.6264 C.ar       1          -0.0993
     25 C17         6.3173    -6.6268    96.9247 C.ar       1          -0.1072
     26 C18         7.0919    -5.6687    96.2957 C.ar       1          -0.1127
     27 C19         6.5259    -4.8159    95.3654 C.ar       1          -0.1222
     28 C20         5.1850    -4.9208    95.0554 C.ar       1          -0.1218
     29 N5          5.4139    -8.6051    91.7412 N.ar       1          -0.6073
     30 C21         6.3108    -9.1158    90.9034 C.ar       1           0.6779
     31 N6          6.8186   -10.3802    91.1231 N.pl3      1          -0.6308
     32 C22         6.7327   -10.9828    92.4555 C.3        1           0.1186
     33 C23         7.9818   -10.6195    93.2610 C.3        1          -0.0902
     34 C24         7.8934   -11.2395    94.6318 C.ar       1          -0.1079
     35 C25         8.4027   -12.5062    94.8504 C.ar       1          -0.0934
     36 C26         8.3231   -13.0767    96.1061 C.ar       1          -0.1432
     37 C27         7.7319   -12.3773    97.1482 C.ar       1           0.1184
     38 O1          7.6528   -12.9362    98.3844 O.3        1          -0.4971
     39 C28         7.2220   -11.1063    96.9263 C.ar       1          -0.1425
     40 C29         7.3085   -10.5383    95.6699 C.ar       1          -0.0929
     41 N7          6.7143    -8.4109    89.8509 N.ar       1          -0.6160
     42 H5          7.7286    -4.7883    86.1099 H          1           0.1526
     43 H6          8.8182    -4.8598    88.9605 H          1           0.1006
     44 H7          8.1168    -3.4324    88.1601 H          1           0.1201
     45 H8          6.4695    -4.6564    89.6232 H          1           0.0956
     46 H9          5.9627    -4.5757    87.9162 H          1           0.1163
     47 H10         7.0922    -8.2064    87.4730 H          1           0.1336
     48 H11         6.3684    -6.8888    86.5151 H          1           0.1044
     49 H12         8.7517    -7.0524    85.9677 H          1           0.1190
     50 H13         9.1857    -6.9548    87.6917 H          1           0.0998
     51 H14         3.6360    -5.9686    92.2449 H          1           0.4469
     52 H15         3.0862    -8.5643    93.2128 H          1           0.0956
     53 H16         4.3982    -7.8665    94.1926 H          1           0.0942
     54 H17         0.8621    -7.5993    93.2510 H          1           0.1304
     55 H18        -0.7884    -6.2956    94.5267 H          1           0.1359
     56 H19        -0.0533    -4.7974    96.3347 H          1           0.1372
     57 H20         2.3382    -4.5963    96.8748 H          1           0.1340
     58 H21         4.3704    -7.4848    97.1183 H          1           0.1295
     59 H22         6.7643    -7.2897    97.6507 H          1           0.1309
     60 H23         8.1425    -5.5862    96.5321 H          1           0.1258
     61 H24         7.1350    -4.0693    94.8776 H          1           0.1210
     62 H25         4.7449    -4.2574    94.3256 H          1           0.1205
     63 H26         7.2325   -10.8698    90.3951 H          1           0.4326
     64 H27         5.8475   -10.6065    92.9681 H          1           0.0919
     65 H28         6.6643   -12.0665    92.3604 H          1           0.0925
     66 H29         8.8670   -10.9960    92.7484 H          1           0.0873
     67 H30         8.0502    -9.5359    93.3561 H          1           0.0865
     68 H31         8.8630   -13.0503    94.0388 H          1           0.1266
     69 H32         8.7204   -14.0665    96.2762 H          1           0.1333
     70 H33         8.0350   -13.8227    98.4405 H          1           0.3966
     71 H34         6.7611   -10.5600    97.7359 H          1           0.1337
     72 H35         6.9154    -9.5472    95.4977 H          1           0.1275
@<TRIPOS>BOND
     1    1    2 1
     2    1    3 1
     3    1    4 1
     4    1    5 1
     5    5   10 1
     6    5    6 1
     7    5   42 1
     8    6    7 1
     9    6   43 1
    10    6   44 1
    11    7    8 1
    12    7   45 1
    13    7   46 1
    14    8    9 1
    15    8   11 1
    16    9   10 1
    17    9   47 1
    18    9   48 1
    19   10   49 1
    20   10   50 1
    21   11   41 ar
    22   11   12 ar
    23   12   13 1
    24   12   14 ar
    25   14   15 1
    26   14   29 ar
    27   15   16 1
    28   15   51 1
    29   16   17 1
    30   16   52 1
    31   16   53 1
    32   17   22 ar
    33   17   18 ar
    34   18   19 ar
    35   18   54 1
    36   19   20 ar
    37   19   55 1
    38   20   21 ar
    39   20   56 1
    40   21   22 ar
    41   21   57 1
    42   22   23 1
    43   23   28 ar
    44   23   24 ar
    45   24   25 ar
    46   24   58 1
    47   25   26 ar
    48   25   59 1
    49   26   27 ar
    50   26   60 1
    51   27   28 ar
    52   27   61 1
    53   28   62 1
    54   29   30 ar
    55   30   31 1
    56   30   41 ar
    57   31   32 1
    58   31   63 1
    59   32   33 1
    60   32   64 1
    61   32   65 1
    62   33   34 1
    63   33   66 1
    64   33   67 1
    65   34   40 ar
    66   34   35 ar
    67   35   36 ar
    68   35   68 1
    69   36   37 ar
    70   36   69 1
    71   37   38 1
    72   37   39 ar
    73   38   70 1
    74   39   40 ar
    75   39   71 1
    76   40   72 1
##########                 Name:              T531570
##########          Protonation:                   13
##########               SMILES:   1)Cl)/[NH+]=C(/NCCCCCC/[NH+]=C(\NC(=[NH2+])Nc2ccc(cc2)Cl)/N3CCCCC3)\N4CCCCC4
##########            Long Name:   4-chlorophenyl)carbamimidoyl]iminio-(1-piperidyl)methyl]amino]hexyl]ammonium
##########          FlexRecCode: 1
##########               Number:                  208
##########   Ligand Source File: /raidb/db2/rgc/tcams/tcams-0000878.db2.gz
##########           GlobalRank: 29
##########                 Rank:                    1
##########               Setnum:                  320
##########             Matchnum:                 3441
##########                Cloud:                    1
##########        Electrostatic:           -50.517696
##########        Van der Waals:           -26.175402
##########  Ligand Polar Desolv:            10.952652
########## Ligand Apolar Desolv:            -5.492871
##########      Internal Energy:             0.000000
##########      Receptor Energy: 0.0
########## Receptor Desolvation:             0.000000
########## Receptor Hydrophobic:             0.000000
##########         Total Energy: -71.23
##########        Ligand Charge:             3.000000
##########            Arbitrary:    +999.9990
##########     heavy atom count:   44
##########           pose count:    1
##########        Ligand Energy:             0.000000
# num electro vdwattr vdwrepu polsolv apolsol rdesolv rhydroe totalscore fullpol fullapo
#   1    0.16   -5.55    4.43   -2.46   -0.56    0.00    0.00      -3.97   -4.39   -0.99
#   2    0.23   -1.85    0.34   -1.57   -0.16    0.00    0.00      -3.00   -2.97   -0.30
#   3    1.28   -2.63    0.69   -2.64   -0.27    0.00    0.00      -3.57   -4.54   -0.46
#   4    1.43   -2.99    1.41   -2.30   -0.25    0.00    0.00      -2.70   -4.26   -0.46
#   5   -1.32   -1.65    0.30    2.99   -0.28    0.00    0.00       0.04    6.95   -0.65
#   6   14.11   -1.64    0.33  -13.40    0.46    0.00    0.00      -0.14  -30.61    1.05
#   7  -17.56   -1.01    0.07   14.87   -1.57    0.00    0.00      -5.20   42.11   -4.45
#   8   10.82   -1.04    0.07  -13.60    0.24    0.00    0.00      -3.51  -38.68    0.69
#   9   -5.15   -0.02    0.00    7.45    0.07    0.00    0.00       2.35   24.80    0.22
#  10   -5.65   -0.01    0.00    4.58    0.10    0.00    0.00      -0.99   26.24    0.59
#  11   21.63   -1.30    0.34  -12.18    0.33    0.00    0.00       8.82  -34.93    0.95
#  12  -19.85   -0.81    0.06   10.97   -0.98    0.00    0.00     -10.60   42.25   -3.77
#  13   12.24   -0.64    0.04   -6.19    0.35    0.00    0.00       5.80  -28.66    1.63
#  14   -7.41   -0.01    0.00    2.28    0.05    0.00    0.00      -5.08   25.17    0.57
#  15   -0.93   -0.48    0.07    0.28   -0.08    0.00    0.00      -1.14    1.40   -0.38
#  16    1.97   -0.23    0.01   -0.97   -0.03    0.00    0.00       0.74   -7.02   -0.22
#  17    1.53   -0.18    0.00   -0.59   -0.02    0.00    0.00       0.74   -5.74   -0.22
#  18    0.72   -0.10    0.00   -0.35   -0.01    0.00    0.00       0.26   -5.58   -0.22
#  19    0.69   -0.10    0.00   -0.39   -0.02    0.00    0.00       0.19   -5.63   -0.22
#  20   -0.20   -0.14    0.01    0.30   -0.04    0.00    0.00      -0.07    3.31   -0.42
#  21    0.77   -0.09    0.00   -1.24    0.08    0.00    0.00      -0.47  -24.76    1.70
#  22   -0.84   -0.09    0.00    1.40   -0.18    0.00    0.00       0.29   29.46   -3.83
#  23    0.76   -0.20    0.00   -1.71    0.07    0.00    0.00      -1.07  -20.95    0.90
#  24   -0.77   -0.01    0.00    1.23    0.03    0.00    0.00       0.48   17.12    0.36
#  25   -0.62   -0.24    0.00    1.73   -0.41    0.00    0.00       0.46   19.51   -4.68
#  26    0.60   -0.50    0.03   -3.84    0.15    0.00    0.00      -3.57  -22.01    0.84
#  27    0.64   -0.17    0.00   -1.37    0.07    0.00    0.00      -0.83  -20.92    1.06
#  28   -0.14   -0.20    0.00    0.38   -0.05    0.00    0.00      -0.01    4.57   -0.63
#  29    0.16   -0.16    0.00   -0.30   -0.03    0.00    0.00      -0.32   -4.04   -0.36
#  30    0.08   -0.20    0.00   -0.17   -0.04    0.00    0.00      -0.33   -1.88   -0.46
#  31    0.05   -0.32    0.01   -0.27   -0.04    0.00    0.00      -0.57   -1.99   -0.30
#  32    0.05   -1.06    0.10   -0.48   -0.20    0.00    0.00      -1.59   -2.42   -0.99
#  33    0.11   -0.43    0.02   -0.41   -0.07    0.00    0.00      -0.78   -2.54   -0.46
#  34    0.17   -0.32    0.01   -0.42   -0.06    0.00    0.00      -0.61   -3.43   -0.46
#  35    0.45   -0.05    0.00   -0.68    0.01    0.00    0.00      -0.27  -21.61    0.36
#  36   -0.07   -0.05    0.00    0.21   -0.02    0.00    0.00       0.07    5.09   -0.41
#  37    0.04   -0.03    0.00   -0.10   -0.01    0.00    0.00      -0.10   -3.84   -0.26
#  38    0.05   -0.02    0.00   -0.08   -0.01    0.00    0.00      -0.06   -3.67   -0.25
#  39    0.07   -0.03    0.00   -0.11   -0.01    0.00    0.00      -0.08   -4.00   -0.25
#  40   -0.09   -0.03    0.00    0.14   -0.01    0.00    0.00       0.01    5.09   -0.38
#  41   15.98   -0.80    0.03  -10.41    0.22    0.00    0.00       5.01  -34.49    0.73
#  42   -2.05   -0.45    0.01    1.61   -0.11    0.00    0.00      -0.98    6.08   -0.41
#  43    3.41   -0.96    0.25   -2.48   -0.11    0.00    0.00       0.10   -5.68   -0.26
#  44    4.41   -1.96    1.39   -2.68   -0.13    0.00    0.00       1.04   -5.33   -0.25
#  45    3.74   -1.86    0.61   -2.98   -0.13    0.00    0.00      -0.63   -5.92   -0.26
#  46   -2.74   -1.44    0.42    2.59   -0.19    0.00    0.00      -1.36    5.66   -0.41
#  47    1.94   -1.21    0.10   -2.18   -0.13    0.00    0.00      -1.49   -5.89   -0.36
#  48    0.75   -1.51    0.24   -1.13   -0.18    0.00    0.00      -1.84   -2.83   -0.46
#  49   -4.07   -0.81    0.30    1.53   -0.16    0.00    0.00      -3.22    2.61   -0.28
#  50   -3.03   -1.08    1.56    3.64   -0.15    0.00    0.00       0.94    6.80   -0.28
#  51  -13.67   -0.03    0.00   11.52    0.28    0.00    0.00      -1.90   24.61    0.59
#  52  -22.63   -0.07    0.01    6.99    0.06    0.00    0.00     -15.64   26.36    0.21
#  53   -4.83   -0.51    0.52    1.89   -0.06    0.00    0.00      -2.99    8.94   -0.27
#  54   -2.29   -0.09    0.00    0.86   -0.02    0.00    0.00      -1.54   10.50   -0.28
#  55   -0.69   -0.04    0.00    0.18   -0.01    0.00    0.00      -0.57    4.22   -0.28
#  56   -1.29   -0.09    0.00    0.36   -0.03    0.00    0.00      -1.04    3.49   -0.28
#  57   -1.52   -0.09    0.00    0.33   -0.02    0.00    0.00      -1.30    3.74   -0.28
#  58   -0.85   -0.04    0.00    0.17   -0.01    0.00    0.00      -0.73    4.35   -0.28
#  59   -0.25   -0.02    0.00    0.07   -0.01    0.00    0.00      -0.20    2.75   -0.28
#  60   -0.37   -0.04    0.00    0.09   -0.01    0.00    0.00      -0.33    2.41   -0.28
#  61   -0.62   -0.04    0.00    0.17   -0.01    0.00    0.00      -0.51    3.65   -0.28
#  62   -0.38   -0.02    0.00    0.11   -0.01    0.00    0.00      -0.30    4.17   -0.28
#  63   -0.24   -0.07    0.01    0.33   -0.02    0.00    0.00       0.01    4.52   -0.26
#  64   -0.20   -0.06    0.01    0.27   -0.01    0.00    0.00       0.00    4.05   -0.18
#  65   -0.39    0.00    0.00    0.37    0.01    0.00    0.00      -0.01   19.98    0.57
#  66   -0.23   -0.01    0.00    0.85    0.05    0.00    0.00       0.66    9.93    0.59
#  67   -0.32    0.00    0.00    0.36    0.02    0.00    0.00       0.05   12.80    0.59
#  68   -0.10   -0.02    0.00    0.17   -0.01    0.00    0.00       0.04    6.99   -0.25
#  69   -0.15   -0.03    0.00    0.18   -0.01    0.00    0.00      -0.01    5.10   -0.28
#  70   -0.28   -0.14    0.01    0.30   -0.04    0.00    0.00      -0.14    2.28   -0.28
#  71   -0.26   -0.07    0.00    0.21   -0.02    0.00    0.00      -0.14    3.64   -0.28
#  72   -0.04   -0.01    0.00    0.02    0.00    0.00    0.00      -0.04    1.13   -0.23
#  73   -0.03   -0.03    0.00    0.13   -0.01    0.00    0.00       0.06    3.20   -0.27
#  74   -0.01   -0.01    0.00    0.02    0.00    0.00    0.00      -0.01    1.18   -0.28
#  75   -0.02   -0.01    0.00    0.05    0.00    0.00    0.00       0.02    3.96   -0.26
#  76   -0.03    0.00    0.00    0.00    0.00    0.00    0.00      -0.03    0.25   -0.28
#  77   -0.02   -0.01    0.00    0.01    0.00    0.00    0.00      -0.02    1.15   -0.28
#  78   -0.04   -0.01    0.00    0.03   -0.01    0.00    0.00      -0.03    1.58   -0.28
#  79   -0.03   -0.01    0.00    0.08    0.00    0.00    0.00       0.03    4.49   -0.21
#  80   -0.05   -0.01    0.00    0.07    0.00    0.00    0.00       0.00    3.66   -0.27
#  81   -0.06   -0.01    0.00    0.01    0.00    0.00    0.00      -0.06    0.91   -0.27
#  82   -1.98   -0.13    0.00    0.87   -0.03    0.00    0.00      -1.28    6.40   -0.25
#  83   -1.17   -0.10    0.00    0.57   -0.02    0.00    0.00      -0.71    6.60   -0.27
#  84   -3.13   -0.49    0.36    0.42   -0.10    0.00    0.00      -2.94    1.19   -0.28
#  85   -1.28   -0.26    0.02    0.89   -0.09    0.00    0.00      -0.73    2.62   -0.28
#  86   -2.66   -0.66    0.38    1.10   -0.12    0.00    0.00      -1.96    2.61   -0.28
#  87   -3.76   -1.38    3.43   -0.46   -0.15    0.00    0.00      -2.33   -0.83   -0.28
#  88   -2.96   -1.55    1.98    1.00   -0.16    0.00    0.00      -1.69    1.72   -0.28
#  89   -1.88   -0.43    0.09    1.34   -0.11    0.00    0.00      -0.99    3.28   -0.28
#  90   -3.28   -0.50    0.12    3.38   -0.11    0.00    0.00      -0.39    8.48   -0.27
#  91   -2.84   -0.75    0.51    2.61   -0.09    0.00    0.00      -0.56    6.86   -0.24
#  92   -1.19   -0.19    0.01    2.45   -0.04    0.00    0.00       1.04   13.07   -0.22
#  93   -0.98   -0.30    0.04    2.08   -0.07    0.00    0.00       0.77    7.99   -0.28

@<TRIPOS>MOLECULE
          T531570        13
   93    96     0     0     0



@<TRIPOS>ATOM
      1 Cl1         9.1339   -10.3670    99.2997 Cl         1          -0.0118
      2 C1          8.4186    -9.1122    98.3369 C.ar       1          -0.0154
      3 C2          8.7087    -7.7858    98.6047 C.ar       1          -0.0651
      4 C3          8.1409    -6.7855    97.8401 C.ar       1          -0.0770
      5 C4          7.2783    -7.1117    96.8018 C.ar       1           0.0745
      6 N1          6.7021    -6.1002    96.0254 N.pl3      1          -0.5836
      7 C5          5.4621    -6.2893    95.4592 C.cat      1           0.7458
      8 N2          4.5883    -7.0566    96.0462 N.pl3      1          -0.7351
      9 H1          4.8117    -7.4944    96.8824 H          1           0.4466
     10 H2          3.7144    -7.1900    95.6473 H          1           0.4576
     11 N3          5.1445    -5.6664    94.2699 N.pl3      1          -0.6464
     12 C6          3.9017    -5.8560    93.7024 C.cat      1           0.7524
     13 N4          3.8016    -6.3760    92.5124 N.pl3      1          -0.5527
     14 H3          2.9345    -6.4396    92.0824 H          1           0.4620
     15 C7          4.9985    -6.8647    91.8236 C.3        1           0.0383
     16 C8          4.6067    -7.4219    90.4536 C.3        1          -0.1401
     17 C9          5.8568    -7.9323    89.7341 C.3        1          -0.1188
     18 C10         5.4651    -8.4895    88.3641 C.3        1          -0.1181
     19 C11         6.7152    -8.9999    87.6447 C.3        1          -0.1392
     20 C12         6.3234    -9.5572    86.2745 C.3        1           0.0959
     21 N5          5.3756   -10.6605    86.4491 N.pl3      1          -0.6580
     22 C13         4.4388   -10.9155    85.4868 C.cat      1           0.7844
     23 N6          4.3882   -10.1677    84.4007 N.pl3      1          -0.5788
     24 H4          5.0735    -9.5006    84.2389 H          1           0.4382
     25 C14         3.3841   -10.3313    83.5157 C.2        1           0.5975
     26 N7          3.6501   -10.6667    82.2776 N.2        1          -0.7185
     27 N8          2.0745   -10.1451    83.9149 N.pl3      1          -0.6873
     28 C15         1.7770    -9.2368    84.9365 C.ar       1           0.1264
     29 C16         0.6827    -9.4542    85.7636 C.ar       1          -0.1696
     30 C17         0.3915    -8.5561    86.7717 C.ar       1          -0.0780
     31 C18         1.1886    -7.4403    86.9576 C.ar       1          -0.0414
     32 Cl2         0.8198    -6.3135    88.2256 Cl         1          -0.0405
     33 C19         2.2795    -7.2213    86.1347 C.ar       1          -0.0708
     34 C20         2.5786    -8.1191    85.1289 C.ar       1          -0.1119
     35 N9          3.5545   -11.9449    85.6496 N.pl3      1          -0.6250
     36 C21         3.5086   -13.0521    84.6848 C.3        1           0.1434
     37 C22         3.6550   -14.3743    85.4442 C.3        1          -0.1344
     38 C23         2.5881   -14.4501    86.5389 C.3        1          -0.1233
     39 C24         2.7879   -13.2999    87.5286 C.3        1          -0.1399
     40 C25         2.6359   -11.9685    86.7961 C.3        1           0.1424
     41 N10         2.7687    -5.4962    94.3928 N.pl3      1          -0.6780
     42 C26         1.5069    -6.2211    94.1905 C.3        1           0.1074
     43 C27         0.9840    -6.6904    95.5517 C.3        1          -0.1379
     44 C28         0.8746    -5.4891    96.4934 C.3        1          -0.1325
     45 C29         2.2593    -4.8693    96.6954 C.3        1          -0.1401
     46 C30         2.7981    -4.3832    95.3515 C.3        1           0.0986
     47 C31         6.9889    -8.4435    96.5352 C.ar       1          -0.1617
     48 C32         7.5638    -9.4402    97.2991 C.ar       1          -0.0739
     49 H5          9.3793    -7.5327    99.4124 H          1           0.1664
     50 H6          8.3673    -5.7505    98.0497 H          1           0.1610
     51 H7          7.1766    -5.2657    95.8863 H          1           0.4611
     52 H8          5.7951    -5.0950    93.8329 H          1           0.4589
     53 H9          5.7038    -6.0437    91.6937 H          1           0.1210
     54 H10         5.4632    -7.6523    92.4168 H          1           0.1240
     55 H11         3.9017    -8.2428    90.5833 H          1           0.0946
     56 H12         4.1423    -6.6344    89.8603 H          1           0.0946
     57 H13         6.5622    -7.1114    89.6043 H          1           0.0785
     58 H14         6.3214    -8.7200    90.3273 H          1           0.0783
     59 H15         4.7599    -9.3105    88.4939 H          1           0.0778
     60 H16         5.0004    -7.7019    87.7708 H          1           0.0777
     61 H17         7.4204    -8.1790    87.5148 H          1           0.0828
     62 H18         7.1797    -9.7875    88.2378 H          1           0.0829
     63 H19         5.8589    -8.7695    85.6813 H          1           0.1002
     64 H20         7.2140    -9.9208    85.7621 H          1           0.1024
     65 H21         5.4127   -11.2101    87.2474 H          1           0.4261
     66 H22         2.9353   -10.7137    81.6236 H          1           0.3688
     67 H23         1.3615   -10.6442    83.4868 H          1           0.4367
     68 H24         0.0599   -10.3243    85.6186 H          1           0.1299
     69 H25        -0.4592    -8.7246    87.4153 H          1           0.1461
     70 H26         2.8998    -6.3495    86.2818 H          1           0.1510
     71 H27         3.4324    -7.9499    84.4896 H          1           0.1463
     72 H28         2.5551   -13.0374    84.1568 H          1           0.0973
     73 H29         4.3256   -12.9486    83.9706 H          1           0.0704
     74 H30         3.5265   -15.2071    84.7529 H          1           0.0891
     75 H31         4.6452   -14.4263    85.8970 H          1           0.0619
     76 H32         1.5989   -14.3733    86.0877 H          1           0.0762
     77 H33         2.6744   -15.4008    87.0649 H          1           0.0733
     78 H34         2.0422   -13.3679    88.3207 H          1           0.0882
     79 H35         3.7862   -13.3619    87.9617 H          1           0.0628
     80 H36         2.8772   -11.1502    87.4744 H          1           0.0721
     81 H37         1.6096   -11.8636    86.4441 H          1           0.0974
     82 H38         0.7755    -5.5592    93.7265 H          1           0.0970
     83 H39         1.6805    -7.0845    93.5482 H          1           0.0962
     84 H40         0.0014    -7.1454    95.4268 H          1           0.1054
     85 H41         1.6732    -7.4219    95.9736 H          1           0.0791
     86 H42         0.2045    -4.7471    96.0593 H          1           0.0782
     87 H43         0.4795    -5.8164    97.4552 H          1           0.0924
     88 H44         2.1843    -4.0281    97.3845 H          1           0.1070
     89 H45         2.9364    -5.6178    97.1065 H          1           0.0791
     90 H46         3.8234    -4.0344    95.4753 H          1           0.1033
     91 H47         2.1743    -3.5681    94.9844 H          1           0.1046
     92 H48         6.3181    -8.6999    95.7285 H          1           0.1354
     93 H49         7.3428   -10.4762    97.0892 H          1           0.1596
@<TRIPOS>BOND
     1    1    2 1
     2    2   48 ar
     3    2    3 ar
     4    3    4 ar
     5    3   49 1
     6    4    5 ar
     7    4   50 1
     8    5    6 1
     9    5   47 ar
    10    6    7 1
    11    6   51 1
    12    7    8 2
    13    7   11 1
    14    8    9 1
    15    8   10 1
    16   11   12 1
    17   11   52 1
    18   12   13 2
    19   12   41 1
    20   13   14 1
    21   13   15 1
    22   15   16 1
    23   15   53 1
    24   15   54 1
    25   16   17 1
    26   16   55 1
    27   16   56 1
    28   17   18 1
    29   17   57 1
    30   17   58 1
    31   18   19 1
    32   18   59 1
    33   18   60 1
    34   19   20 1
    35   19   61 1
    36   19   62 1
    37   20   21 1
    38   20   63 1
    39   20   64 1
    40   21   22 1
    41   21   65 1
    42   22   23 2
    43   22   35 1
    44   23   24 1
    45   23   25 1
    46   25   26 2
    47   25   27 1
    48   26   66 1
    49   27   28 1
    50   27   67 1
    51   28   34 ar
    52   28   29 ar
    53   29   30 ar
    54   29   68 1
    55   30   31 ar
    56   30   69 1
    57   31   32 1
    58   31   33 ar
    59   33   34 ar
    60   33   70 1
    61   34   71 1
    62   35   40 1
    63   35   36 1
    64   36   37 1
    65   36   72 1
    66   36   73 1
    67   37   38 1
    68   37   74 1
    69   37   75 1
    70   38   39 1
    71   38   76 1
    72   38   77 1
    73   39   40 1
    74   39   78 1
    75   39   79 1
    76   40   80 1
    77   40   81 1
    78   41   46 1
    79   41   42 1
    80   42   43 1
    81   42   82 1
    82   42   83 1
    83   43   44 1
    84   43   84 1
    85   43   85 1
    86   44   45 1
    87   44   86 1
    88   44   87 1
    89   45   46 1
    90   45   88 1
    91   45   89 1
    92   46   90 1
    93   46   91 1
    94   47   48 ar
    95   47   92 1
    96   48   93 1
##########                 Name:              T529247
##########          Protonation:                   46
##########               SMILES:   c1ccc2c(c1)cccc2CNc3[nH+]c(nc(n3)N4CCC[NH2+]CC4)NCCCc5ccc(cc5)O
##########            Long Name:   1-yl)-6-(1-naphthylmethylamino)-1,3,5-triazin-1-ium-2-yl]amino]propyl]phenol
##########          FlexRecCode: 1
##########               Number:                  203
##########   Ligand Source File: /raidb/db2/rgc/tcams/tcams-0000724.db2.gz
##########           GlobalRank: 30
##########                 Rank:                    1
##########               Setnum:                   78
##########             Matchnum:                 1536
##########                Cloud:                    1
##########        Electrostatic:           -46.425407
##########        Van der Waals:           -32.263638
##########  Ligand Polar Desolv:            13.141468
########## Ligand Apolar Desolv:            -5.471232
##########      Internal Energy:             0.000000
##########      Receptor Energy: 0.0
########## Receptor Desolvation:             0.000000
########## Receptor Hydrophobic:             0.000000
##########         Total Energy: -71.02
##########        Ligand Charge:             2.000000
##########            Arbitrary:    +999.9990
##########     heavy atom count:   36
##########           pose count:    1
##########        Ligand Energy:             0.000000
# num electro vdwattr vdwrepu polsolv apolsol rdesolv rhydroe totalscore fullpol fullapo
#   1    2.99   -0.42    0.03   -0.83    0.21    0.00    0.00       1.97   -4.67    1.19
#   2   -0.50   -0.25    0.01    0.02   -0.03    0.00    0.00      -0.76    0.18   -0.31
#   3    0.75   -0.45    0.06   -0.32   -0.06    0.00    0.00      -0.03   -2.36   -0.46
#   4    0.68   -0.61    0.17   -0.26   -0.06    0.00    0.00      -0.08   -1.84   -0.46
#   5    0.91   -0.25    0.01   -0.15   -0.04    0.00    0.00       0.48   -1.57   -0.36
#   6    0.91   -0.23    0.01   -0.29   -0.03    0.00    0.00       0.36   -2.03   -0.23
#   7    2.96   -0.61    0.09   -0.91   -0.06    0.00    0.00       1.48   -3.63   -0.22
#   8   -1.68   -0.38    0.03    0.60   -0.07    0.00    0.00      -1.50    3.21   -0.38
#   9   21.94   -1.94    1.08   -6.23    0.47    0.00    0.00      15.32  -22.93    1.73
#  10  -24.09   -1.80    1.46    6.22   -1.22    0.00    0.00     -19.43   24.54   -4.81
#  11   22.14   -1.73    0.85   -6.14    0.51    0.00    0.00      15.62  -21.96    1.81
#  12  -18.92   -0.88    0.10    5.97   -1.22    0.00    0.00     -14.96   22.68   -4.63
#  13   13.09   -0.71    0.03   -5.39    0.45    0.00    0.00       7.46  -22.08    1.83
#  14  -13.63   -0.76    0.06    6.40   -1.21    0.00    0.00      -9.14   25.45   -4.81
#  15    8.08   -0.96    0.10   -6.41    0.48    0.00    0.00       1.29  -23.18    1.73
#  16   -0.74   -1.02    0.33    1.56   -0.11    0.00    0.00       0.01    4.75   -0.33
#  17    1.16   -1.40    0.17   -0.74   -0.14    0.00    0.00      -0.95   -1.98   -0.37
#  18    0.80   -1.56    0.19   -1.09   -0.22    0.00    0.00      -1.88   -2.25   -0.45
#  19    2.20   -2.04    0.37   -1.45   -0.26    0.00    0.00      -1.17   -2.61   -0.47
#  20    0.84   -1.95    0.46   -1.35   -0.24    0.00    0.00      -2.24   -2.57   -0.46
#  21    0.53   -1.49    0.23   -0.82   -0.20    0.00    0.00      -1.76   -1.67   -0.40
#  22    0.66   -1.81    0.21   -1.47   -0.27    0.00    0.00      -2.67   -2.54   -0.46
#  23    1.19   -2.03    0.33   -1.30   -0.25    0.00    0.00      -2.07   -2.41   -0.47
#  24    0.80   -2.09    0.74   -1.43   -0.22    0.00    0.00      -2.20   -3.01   -0.47
#  25    0.50   -1.72    0.34   -0.76   -0.18    0.00    0.00      -1.83   -1.92   -0.44
#  26    0.18   -1.41    0.18   -0.49   -0.16    0.00    0.00      -1.69   -1.27   -0.40
#  27   16.04   -0.92    0.16   -5.52    0.24    0.00    0.00      10.00  -23.08    0.99
#  28   -9.41   -0.01    0.00    3.00    0.06    0.00    0.00      -6.37   18.55    0.36
#  29   14.76   -0.97    0.05   -6.63    0.42    0.00    0.00       7.63  -19.60    1.23
#  30   -2.71   -1.15    0.18    1.58   -0.20    0.00    0.00      -2.30    3.61   -0.46
#  31    3.59   -0.99    0.10   -2.77   -0.11    0.00    0.00      -0.18   -6.06   -0.24
#  32    0.29   -1.51    0.78    0.23   -0.22    0.00    0.00      -0.43    0.47   -0.45
#  33   12.80   -1.04    0.23   -8.07    0.29    0.00    0.00       4.21  -21.80    0.79
#  34   -7.74   -0.01    0.00    2.86    0.06    0.00    0.00      -4.83   21.99    0.49
#  35  -13.70   -0.03    0.00    6.77    0.17    0.00    0.00      -6.79   22.84    0.57
#  36    1.02   -0.74    0.06   -0.17   -0.17    0.00    0.00      -0.01   -0.48   -0.48
#  37   -2.16   -0.85    0.14    0.89   -0.13    0.00    0.00      -2.11    2.72   -0.41
#  38    0.54   -0.13    0.00   -0.10   -0.02    0.00    0.00       0.29   -1.82   -0.46
#  39    0.46   -0.13    0.00   -0.14   -0.03    0.00    0.00       0.17   -2.39   -0.46
#  40   -4.07   -0.01    0.00    0.85    0.20    0.00    0.00      -3.03    5.32    1.22
#  41   -0.63   -0.14    0.02    0.16   -0.04    0.00    0.00      -0.63    1.21   -0.28
#  42   -0.92   -0.34    0.28    0.54   -0.04    0.00    0.00      -0.49    3.44   -0.28
#  43   -0.90   -0.08    0.00    0.23   -0.02    0.00    0.00      -0.76    3.21   -0.28
#  44   -0.87   -0.05    0.00    0.13   -0.01    0.00    0.00      -0.80    3.00   -0.28
#  45   -2.21   -0.30    0.07    0.49   -0.07    0.00    0.00      -2.02    1.94   -0.28
#  46   -2.57   -0.33    0.11    0.54   -0.07    0.00    0.00      -2.32    2.24   -0.28
#  47   -1.39   -0.07    0.00    0.37   -0.02    0.00    0.00      -1.11    5.31   -0.27
#  48   -1.33   -0.05    0.00    0.24   -0.01    0.00    0.00      -1.16    4.83   -0.27
#  49  -18.62   -0.05    0.00    4.43    0.17    0.00    0.00     -14.06   15.07    0.58
#  50   -5.90   -0.02    0.00    2.74    0.10    0.00    0.00      -3.08   15.19    0.58
#  51   -0.73   -0.26    0.04    1.26   -0.05    0.00    0.00       0.26    5.61   -0.23
#  52    0.34   -1.06    2.93    1.78   -0.08    0.00    0.00       3.91    5.89   -0.27
#  53   -1.97   -0.29    0.03    1.62   -0.09    0.00    0.00      -0.71    5.09   -0.28
#  54   -3.04   -0.54    0.10    1.24   -0.16    0.00    0.00      -2.40    2.23   -0.28
#  55   -1.95   -0.59    0.49    0.57   -0.13    0.00    0.00      -1.61    1.21   -0.28
#  56   -0.61   -0.56    0.14    0.57   -0.14    0.00    0.00      -0.60    1.13   -0.28
#  57   -1.65   -0.67    0.28    0.93   -0.15    0.00    0.00      -1.27    1.74   -0.28
#  58   -1.68   -0.74    0.63    1.43   -0.11    0.00    0.00      -0.47    3.70   -0.28
#  59    0.10   -0.53    0.26    1.88   -0.07    0.00    0.00       1.64    6.61   -0.23
#  60   -2.92   -0.41    0.09    0.61   -0.09    0.00    0.00      -2.72    1.99   -0.28
#  61   -3.36   -0.83    0.62    1.20   -0.10    0.00    0.00      -2.46    3.02   -0.24
#  62   -1.46   -0.21    0.01    1.25   -0.06    0.00    0.00      -0.46    5.42   -0.25
#  63   -3.06   -0.54    0.20    1.77   -0.13    0.00    0.00      -1.76    3.87   -0.28
#  64   -5.13   -0.87    1.51    3.35   -0.13    0.00    0.00      -1.28    7.11   -0.28
#  65   -4.30   -0.67    0.33    2.20   -0.12    0.00    0.00      -2.55    4.50   -0.24
#  66   -3.41   -0.18    0.01    1.70   -0.05    0.00    0.00      -1.92    8.69   -0.28
#  67   -3.34   -0.43    0.17    1.71   -0.09    0.00    0.00      -1.98    5.20   -0.28
#  68   -3.43   -0.70    0.80    1.39   -0.09    0.00    0.00      -2.03    3.91   -0.24
#  69   -2.12   -0.18    0.02    1.00   -0.05    0.00    0.00      -1.33    6.01   -0.28
#  70   -0.66   -0.02    0.00    0.10   -0.01    0.00    0.00      -0.58    3.71   -0.28
#  71   -0.17   -0.02    0.00    0.03   -0.01    0.00    0.00      -0.17    1.34   -0.28

@<TRIPOS>MOLECULE
          T529247        46
   71    75     0     0     0



@<TRIPOS>ATOM
      1 O1          7.5944   -13.0108    91.1389 O.3        1          -0.4973
      2 C1          7.9010   -11.7725    90.6702 C.ar       1           0.1157
      3 C2          8.9571   -11.0624    91.2226 C.ar       1          -0.1427
      4 C3          9.2670    -9.8041    90.7441 C.ar       1          -0.0967
      5 C4          8.5251    -9.2520    89.7161 C.ar       1          -0.1102
      6 C5          8.8651    -7.8789    89.1964 C.3        1          -0.0721
      7 C6          8.0812    -6.8270    89.9838 C.3        1          -0.1275
      8 C7          6.5812    -7.0783    89.8173 C.3        1           0.0815
      9 N1          5.8307    -6.0710    90.5712 N.pl3      1          -0.6478
     10 C8          5.4895    -6.3069    91.8875 C.ar       1           0.6966
     11 N2          4.4981    -5.6229    92.4497 N.ar       1          -0.6198
     12 C9          4.1692    -5.8501    93.7177 C.ar       1           0.6765
     13 N3          4.8322    -6.7611    94.4234 N.ar       1          -0.6270
     14 C10         5.8235    -7.4450    93.8610 C.ar       1           0.6962
     15 N4          6.5114    -8.3913    94.5932 N.pl3      1          -0.6435
     16 C11         5.9107    -8.9612    95.8017 C.3        1           0.1361
     17 C12         6.9989    -9.3387    96.7736 C.ar       1          -0.1391
     18 C13         7.4338    -8.4383    97.6972 C.ar       1          -0.0590
     19 C14         8.4386    -8.7693    98.6041 C.ar       1          -0.1304
     20 C15         9.0146   -10.0025    98.5924 C.ar       1          -0.0625
     21 C16         8.5920   -10.9585    97.6536 C.ar       1          -0.0586
     22 C17         9.1626   -12.2422    97.6113 C.ar       1          -0.0861
     23 C18         8.7276   -13.1425    96.6881 C.ar       1          -0.1179
     24 C19         7.7226   -12.8113    95.7809 C.ar       1          -0.0896
     25 C20         7.1471   -11.5781    95.7918 C.ar       1          -0.1357
     26 C21         7.5659   -10.6237    96.7348 C.ar       1          -0.0280
     27 N5          6.1487    -7.2217    92.5913 N.ar       1          -0.6334
     28 H1          6.8693    -7.7238    92.1796 H          1           0.4413
     29 N6          3.1402    -5.1397    94.3018 N.pl3      1          -0.5549
     30 C22         3.2002    -4.8789    95.7172 C.3        1           0.1012
     31 C23         2.5202    -6.0187    96.5137 C.3        1          -0.1611
     32 C24         1.0580    -5.9525    96.3397 C.3        1          -0.0097
     33 N7          0.6472    -6.0838    94.9346 N.4        1          -0.4928
     34 H2          1.2606    -6.7461    94.4839 H          1           0.4282
     35 H3         -0.2915    -6.4535    94.9103 H          1           0.4360
     36 C25         0.6719    -4.8541    94.1807 C.3        1          -0.0432
     37 C26         2.0226    -4.6723    93.4419 C.3        1           0.0951
     38 C27         7.4723    -9.9579    89.1638 C.ar       1          -0.0971
     39 C28         7.1619   -11.2187    89.6349 C.ar       1          -0.1431
     40 H4          8.1649   -13.3107    91.8598 H          1           0.3964
     41 H5          9.5363   -11.4930    92.0260 H          1           0.1329
     42 H6         10.0890    -9.2509    91.1737 H          1           0.1261
     43 H7          9.9337    -7.6997    89.3151 H          1           0.0803
     44 H8          8.6009    -7.8142    88.1409 H          1           0.0808
     45 H9          8.3454    -6.8918    91.0394 H          1           0.0872
     46 H10         8.3272    -5.8339    89.6080 H          1           0.0864
     47 H11         6.3170    -7.0136    88.7618 H          1           0.0921
     48 H12         6.3353    -8.0714    90.1930 H          1           0.0927
     49 H13         5.5735    -5.2385    90.1452 H          1           0.4469
     50 H14         7.3927    -8.6793    94.3076 H          1           0.4464
     51 H15         5.2520    -8.2247    96.2620 H          1           0.0983
     52 H16         5.3354    -9.8486    95.5377 H          1           0.0999
     53 H17         6.9937    -7.4525    97.7273 H          1           0.1295
     54 H18         8.7653    -8.0363    99.3268 H          1           0.1365
     55 H19         9.7930   -10.2448    99.3010 H          1           0.1394
     56 H20         9.9426   -12.5127    98.3076 H          1           0.1372
     57 H21         9.1678   -14.1281    96.6578 H          1           0.1322
     58 H22         7.3959   -13.5442    95.0581 H          1           0.1260
     59 H23         6.3697   -11.3355    95.0824 H          1           0.1148
     60 H24         4.2433    -4.8002    96.0235 H          1           0.1032
     61 H25         2.6909    -3.9390    95.9307 H          1           0.1216
     62 H26         2.8845    -6.9802    96.1517 H          1           0.0990
     63 H27         2.7637    -5.9165    97.5711 H          1           0.1368
     64 H28         0.5983    -6.7545    96.9172 H          1           0.1468
     65 H29         0.7011    -4.9966    96.7229 H          1           0.1256
     66 H30        -0.1364    -4.8669    93.4497 H          1           0.1584
     67 H31         0.5243    -4.0152    94.8609 H          1           0.1309
     68 H32         2.1678    -3.6190    93.2022 H          1           0.1411
     69 H33         2.0103    -5.2524    92.5193 H          1           0.1188
     70 H34         6.8947    -9.5247    88.3606 H          1           0.1255
     71 H35         6.3418   -11.7713    89.2007 H          1           0.1326
@<TRIPOS>BOND
     1    1    2 1
     2    1   40 1
     3    2   39 ar
     4    2    3 ar
     5    3    4 ar
     6    3   41 1
     7    4    5 ar
     8    4   42 1
     9    5    6 1
    10    5   38 ar
    11    6    7 1
    12    6   43 1
    13    6   44 1
    14    7    8 1
    15    7   45 1
    16    7   46 1
    17    8    9 1
    18    8   47 1
    19    8   48 1
    20    9   10 1
    21    9   49 1
    22   10   27 ar
    23   10   11 ar
    24   11   12 ar
    25   12   13 ar
    26   12   29 1
    27   13   14 ar
    28   14   15 1
    29   14   27 ar
    30   15   16 1
    31   15   50 1
    32   16   17 1
    33   16   51 1
    34   16   52 1
    35   17   26 ar
    36   17   18 ar
    37   18   19 ar
    38   18   53 1
    39   19   20 ar
    40   19   54 1
    41   20   21 ar
    42   20   55 1
    43   21   26 ar
    44   21   22 ar
    45   22   23 ar
    46   22   56 1
    47   23   24 ar
    48   23   57 1
    49   24   25 ar
    50   24   58 1
    51   25   26 ar
    52   25   59 1
    53   27   28 1
    54   29   37 1
    55   29   30 1
    56   30   31 1
    57   30   60 1
    58   30   61 1
    59   31   32 1
    60   31   62 1
    61   31   63 1
    62   32   33 1
    63   32   64 1
    64   32   65 1
    65   33   34 1
    66   33   35 1
    67   33   36 1
    68   36   37 1
    69   36   66 1
    70   36   67 1
    71   37   68 1
    72   37   69 1
    73   38   39 ar
    74   38   70 1
    75   39   71 1
##########                 Name:              T535503
##########          Protonation:                   94
##########               SMILES:   c1cc(ccc1/C=C\C(=O)NCCCCC[NH+]2CCCN(CC2)C(=O)Nc3ccc(c(c3)Cl)F)Cl
##########            Long Name:   -(4-chlorophenyl)prop-2-enoyl]amino]pentyl]-1,4-diazepan-4-ium-1-carboxamide
##########          FlexRecCode: 1
##########               Number:                  164
##########   Ligand Source File: /raidb/db2/rgc/tcams/tcams-0001385.db2.gz
##########           GlobalRank: 31
##########                 Rank:                    1
##########               Setnum:                   79
##########             Matchnum:                  126
##########                Cloud:                    1
##########        Electrostatic:           -41.059921
##########        Van der Waals:           -34.169010
##########  Ligand Polar Desolv:             9.030144
########## Ligand Apolar Desolv:            -4.815625
##########      Internal Energy:             0.000000
##########      Receptor Energy: 0.0
########## Receptor Desolvation:             0.000000
########## Receptor Hydrophobic:             0.000000
##########         Total Energy: -71.01
##########        Ligand Charge:             1.000000
##########            Arbitrary:    +999.9990
##########     heavy atom count:   35
##########           pose count:    1
##########        Ligand Energy:             0.000000
# num electro vdwattr vdwrepu polsolv apolsol rdesolv rhydroe totalscore fullpol fullapo
#   1    0.52   -1.93    1.00   -0.20   -0.28    0.00    0.00      -0.89   -0.33   -0.47
#   2   -0.85   -2.03    0.47   -0.02   -0.19    0.00    0.00      -2.62   -0.03   -0.34
#   3    1.44   -2.07    0.79   -0.58   -0.24    0.00    0.00      -0.66   -1.11   -0.47
#   4    1.19   -1.63    0.34   -0.51   -0.20    0.00    0.00      -0.82   -1.16   -0.46
#   5   -0.92   -1.44    0.19    0.84   -0.25    0.00    0.00      -1.58    2.26   -0.67
#   6    3.32   -1.44    0.28   -3.88    0.57    0.00    0.00      -1.16  -11.33    1.67
#   7   -5.35   -1.40    0.28    3.92   -0.70    0.00    0.00      -3.26   11.32   -2.03
#   8    4.03   -2.13    0.58   -2.98    0.14    0.00    0.00      -0.35   -6.80    0.32
#   9    9.16   -0.85    0.05   -4.13    0.43    0.00    0.00       4.66  -13.96    1.44
#  10   -1.99   -0.66    0.04    0.72   -0.16    0.00    0.00      -2.05    2.08   -0.46
#  11    5.21   -1.09    0.16   -2.00   -0.11    0.00    0.00       2.18   -4.50   -0.24
#  12    0.39   -1.19    0.38   -0.13   -0.14    0.00    0.00      -0.70   -0.33   -0.36
#  13   14.52   -1.94    2.24   -3.28    0.05    0.00    0.00      11.60  -11.33    0.18
#  14  -24.16   -0.17    0.09    4.80    0.12    0.00    0.00     -19.32   16.90    0.44
#  15    0.73   -1.48    0.76   -0.03   -0.11    0.00    0.00      -0.12   -0.08   -0.35
#  16    4.59   -1.23    0.54   -1.17   -0.06    0.00    0.00       2.67   -4.01   -0.20
#  17    1.36   -1.11    0.29   -0.91   -0.07    0.00    0.00      -0.43   -2.91   -0.22
#  18    0.42   -0.50    0.06   -0.53   -0.05    0.00    0.00      -0.59   -2.32   -0.22
#  19   -0.21   -0.76    0.19    0.37   -0.11    0.00    0.00      -0.53    1.44   -0.42
#  20    0.95   -0.52    0.02   -1.87    0.48    0.00    0.00      -0.94   -9.14    2.33
#  21   -0.58   -0.75    0.06    1.21   -0.16    0.00    0.00      -0.22    4.31   -0.58
#  22    0.47   -1.71    0.77   -0.70    0.10    0.00    0.00      -1.06   -1.98    0.29
#  23    0.24   -0.69    0.05   -0.59   -0.13    0.00    0.00      -1.12   -2.12   -0.45
#  24    0.01   -0.65    0.06   -0.12   -0.11    0.00    0.00      -0.81   -0.49   -0.44
#  25    0.16   -0.64    0.07   -0.07   -0.07    0.00    0.00      -0.56   -0.34   -0.31
#  26    0.06   -0.46    0.03   -0.03   -0.05    0.00    0.00      -0.45   -0.16   -0.31
#  27    0.24   -0.57    0.03   -0.08   -0.11    0.00    0.00      -0.49   -0.33   -0.46
#  28    0.16   -0.62    0.03   -0.03   -0.07    0.00    0.00      -0.53   -0.13   -0.30
#  29    0.97   -1.51    0.13   -0.03   -0.29    0.00    0.00      -0.74   -0.11   -0.99
#  30    1.53   -0.78    0.08   -0.09   -0.12    0.00    0.00       0.62   -0.36   -0.46
#  31    0.65   -0.90    0.14   -0.13   -0.12    0.00    0.00      -0.37   -0.48   -0.45
#  32    1.00   -0.42    0.03   -0.08   -0.08    0.00    0.00       0.45   -0.39   -0.39
#  33   -2.10   -0.49    0.03    0.59   -0.11    0.00    0.00      -2.07    2.34   -0.42
#  34    0.46   -1.57    0.21   -0.38   -0.17    0.00    0.00      -1.45   -0.86   -0.39
#  35    0.43   -1.68    0.18   -0.26   -0.17    0.00    0.00      -1.50   -0.46   -0.30
#  36    0.37   -6.49    4.00   -0.20   -0.58    0.00    0.00      -2.89   -0.33   -0.97
#  37   -2.66   -0.48    0.12    0.95   -0.13    0.00    0.00      -2.20    2.05   -0.28
#  38   -2.05   -0.27    0.02    1.15   -0.08    0.00    0.00      -1.23    4.02   -0.28
#  39   -1.42   -0.02    0.00    1.94    0.08    0.00    0.00       0.57    9.83    0.41
#  40   -1.69   -0.15    0.00    0.36   -0.03    0.00    0.00      -1.50    2.58   -0.20
#  41   -1.85   -0.30    0.04    0.67   -0.08    0.00    0.00      -1.51    2.22   -0.28
#  42   -4.10   -0.63    0.27    1.92   -0.12    0.00    0.00      -2.66    4.56   -0.28
#  43   -3.65   -0.39    0.10    1.84   -0.10    0.00    0.00      -2.20    4.80   -0.25
#  44   -3.65   -0.18    0.01    0.59   -0.05    0.00    0.00      -3.28    3.01   -0.24
#  45   -6.57   -0.70    0.35    2.74   -0.10    0.00    0.00      -4.30    6.14   -0.23
#  46   -2.76   -0.16    0.01    0.76   -0.04    0.00    0.00      -2.18    4.65   -0.26
#  47   -6.02   -1.19    1.80    1.62   -0.11    0.00    0.00      -3.90    3.97   -0.27
#  48   -4.10   -1.11    1.84    1.18   -0.07    0.00    0.00      -2.26    3.87   -0.23
#  49   -1.89   -0.11    0.01    0.39   -0.03    0.00    0.00      -1.64    3.77   -0.28
#  50   -1.80   -0.99    0.92    0.52   -0.12    0.00    0.00      -1.47    1.22   -0.28
#  51   -0.33   -0.21    0.03    0.24   -0.05    0.00    0.00      -0.32    1.30   -0.28
#  52   -0.33   -0.05    0.00    0.10   -0.01    0.00    0.00      -0.30    2.14   -0.28
#  53   -0.39   -0.19    0.05    0.32   -0.05    0.00    0.00      -0.26    1.98   -0.28
#  54   -0.11   -0.74    0.76    0.06   -0.09    0.00    0.00      -0.12    0.18   -0.28
#  55   -0.13   -0.17    0.02    0.04   -0.04    0.00    0.00      -0.27    0.29   -0.28
#  56   -0.50    0.00    0.00    0.35    0.03    0.00    0.00      -0.13    7.41    0.56
#  57   -0.11   -0.19    0.02    0.75   -0.07    0.00    0.00       0.39    3.21   -0.28
#  58   -0.25   -0.16    0.02    0.43   -0.05    0.00    0.00      -0.01    2.32   -0.28
#  59   -0.18   -0.06    0.00    0.04   -0.01    0.00    0.00      -0.21    0.70   -0.25
#  60   -0.15   -0.15    0.01    0.08   -0.05    0.00    0.00      -0.27    0.41   -0.28
#  61   -2.45   -0.15    0.01    0.07   -0.04    0.00    0.00      -2.57    0.47   -0.28
#  62   -1.22   -0.23    0.03    0.30   -0.07    0.00    0.00      -1.18    1.23   -0.28
#  63   -1.88   -0.10    0.00    0.22   -0.03    0.00    0.00      -1.78    2.46   -0.28
#  64   -2.44   -0.08    0.00    0.42   -0.02    0.00    0.00      -2.12    5.84   -0.26
#  65   -2.77   -0.25    0.05    1.09   -0.06    0.00    0.00      -1.94    5.03   -0.28
#  66   -1.43   -0.13    0.01    0.12   -0.03    0.00    0.00      -1.45    1.02   -0.24
#  67   -0.58   -0.39    0.09    0.32   -0.07    0.00    0.00      -0.63    1.01   -0.21

@<TRIPOS>MOLECULE
          T535503        94
   67    69     0     0     0



@<TRIPOS>ATOM
      1 F1          9.7856   -12.2709    99.2454 F          1          -0.1197
      2 C1          8.9727   -11.6132    98.3901 C.ar       1           0.1044
      3 C2          8.7597   -10.2540    98.5455 C.ar       1          -0.1182
      4 C3          7.9287    -9.5796    97.6724 C.ar       1          -0.1078
      5 C4          7.3064   -10.2653    96.6375 C.ar       1           0.1478
      6 N1          6.4637    -9.5826    95.7512 N.am       1          -0.6757
      7 C5          5.7744    -8.5039    96.1727 C.2        1           0.7014
      8 O1          5.4272    -8.4203    97.3349 O.2        1          -0.5489
      9 N2          5.4699    -7.5178    95.3059 N.am       1          -0.6358
     10 C6          4.7165    -6.3153    95.7447 C.3        1           0.0949
     11 C7          5.0851    -4.9603    95.1888 C.3        1          -0.1572
     12 C8          4.3432    -4.7556    93.8518 C.3        1          -0.0102
     13 N3          4.8658    -5.5685    92.8155 N.4        1          -0.3663
     14 H1          5.8399    -5.3381    92.6897 H          1           0.4172
     15 C9          4.1521    -5.2510    91.5714 C.3        1          -0.0208
     16 C10         4.9856    -5.7108    90.3736 C.3        1          -0.1460
     17 C11         4.2424    -5.3801    89.0778 C.3        1          -0.1154
     18 C12         2.8924    -6.1000    89.0662 C.3        1          -0.1320
     19 C13         2.1492    -5.7693    87.7704 C.3        1           0.1187
     20 N4          0.8565    -6.4587    87.7592 N.am       1          -0.7327
     21 C14        -0.2334    -5.8552    88.2732 C.2        1           0.5395
     22 O2         -0.1439    -4.7376    88.7466 O.2        1          -0.5203
     23 C15        -1.5250    -6.5440    88.2620 C.2        1          -0.2230
     24 C16        -1.8825    -7.3235    89.3028 C.2        1          -0.0081
     25 C17        -1.0859    -7.3099    90.5400 C.ar       1          -0.0740
     26 C18        -0.4833    -8.4851    91.0006 C.ar       1          -0.0312
     27 C19         0.2619    -8.4648    92.1599 C.ar       1          -0.1213
     28 C20         0.4145    -7.2841    92.8687 C.ar       1          -0.0205
     29 Cl1         1.3544    -7.2682    94.3283 Cl         1          -0.0698
     30 C21        -0.1791    -6.1162    92.4182 C.ar       1          -0.1200
     31 C22        -0.9227    -6.1205    91.2576 C.ar       1          -0.0844
     32 C23         4.7577    -7.0108    93.0534 C.3        1          -0.0473
     33 C24         5.8813    -7.5937    93.8811 C.3        1           0.1145
     34 C25         7.5209   -11.6279    96.4822 C.ar       1          -0.0870
     35 C26         8.3575   -12.2985    97.3548 C.ar       1          -0.0575
     36 Cl2         8.6322   -14.0013    97.1574 Cl         1          -0.0337
     37 H2          9.2436    -9.7206    99.3504 H          1           0.1554
     38 H3          7.7625    -8.5196    97.7948 H          1           0.1442
     39 H4          6.3762    -9.8862    94.8342 H          1           0.4105
     40 H5          3.6652    -6.4872    95.5140 H          1           0.0925
     41 H6          4.8006    -6.2561    96.8299 H          1           0.0950
     42 H7          4.7902    -4.1828    95.8936 H          1           0.1281
     43 H8          6.1609    -4.9135    95.0213 H          1           0.0946
     44 H9          3.2894    -4.9967    93.9923 H          1           0.1287
     45 H10         4.4287    -3.7097    93.5572 H          1           0.1384
     46 H11         3.1903    -5.7638    91.5631 H          1           0.1346
     47 H12         3.9905    -4.1747    91.5098 H          1           0.1316
     48 H13         5.9474    -5.1979    90.3819 H          1           0.0870
     49 H14         5.1472    -6.7870    90.4352 H          1           0.0893
     50 H15         4.0808    -4.3040    89.0162 H          1           0.0796
     51 H16         4.8363    -5.7078    88.2246 H          1           0.0785
     52 H17         3.0540    -7.1763    89.1278 H          1           0.0737
     53 H18         2.2985    -5.7723    89.9194 H          1           0.0744
     54 H19         1.9878    -4.6932    87.7087 H          1           0.0690
     55 H20         2.7432    -6.0971    86.9171 H          1           0.0687
     56 H21         0.7852    -7.3495    87.3820 H          1           0.4007
     57 H22        -2.1916    -6.4282    87.4202 H          1           0.1359
     58 H23        -2.7535    -7.9577    89.2283 H          1           0.1429
     59 H24        -0.6020    -9.4062    90.4494 H          1           0.1191
     60 H25         0.7277    -9.3715    92.5167 H          1           0.1299
     61 H26        -0.0559    -5.1996    92.9758 H          1           0.1345
     62 H27        -1.3818    -5.2085    90.9055 H          1           0.1327
     63 H28         3.8137    -7.2069    93.5619 H          1           0.1318
     64 H29         4.7383    -7.5191    92.0894 H          1           0.1469
     65 H30         6.7947    -7.0186    93.7285 H          1           0.1029
     66 H31         6.0479    -8.6334    93.5990 H          1           0.1343
     67 H32         7.0379   -12.1628    95.6779 H          1           0.1610
@<TRIPOS>BOND
     1    1    2 1
     2    2   35 ar
     3    2    3 ar
     4    3    4 ar
     5    3   37 1
     6    4    5 ar
     7    4   38 1
     8    5    6 1
     9    5   34 ar
    10    6    7 am
    11    6   39 1
    12    7    8 2
    13    7    9 am
    14    9   33 1
    15    9   10 1
    16   10   11 1
    17   10   40 1
    18   10   41 1
    19   11   12 1
    20   11   42 1
    21   11   43 1
    22   12   13 1
    23   12   44 1
    24   12   45 1
    25   13   14 1
    26   13   15 1
    27   13   32 1
    28   15   16 1
    29   15   46 1
    30   15   47 1
    31   16   17 1
    32   16   48 1
    33   16   49 1
    34   17   18 1
    35   17   50 1
    36   17   51 1
    37   18   19 1
    38   18   52 1
    39   18   53 1
    40   19   20 1
    41   19   54 1
    42   19   55 1
    43   20   21 am
    44   20   56 1
    45   21   22 2
    46   21   23 1
    47   23   24 2
    48   23   57 1
    49   24   25 1
    50   24   58 1
    51   25   31 ar
    52   25   26 ar
    53   26   27 ar
    54   26   59 1
    55   27   28 ar
    56   27   60 1
    57   28   29 1
    58   28   30 ar
    59   30   31 ar
    60   30   61 1
    61   31   62 1
    62   32   33 1
    63   32   63 1
    64   32   64 1
    65   33   65 1
    66   33   66 1
    67   34   35 ar
    68   34   67 1
    69   35   36 1
##########                 Name:              T543066
##########          Protonation:                   89
##########               SMILES:   Cc1c([nH]c2c1c(cc(c2)Cl)Cl)C[NH2+]CCC[NH+]=c3[nH]c4ccccc4[nH]3
##########            Long Name:   dol-2-yl)methyl-[3-(1,3-dihydrobenzimidazol-2-ylideneammonio)propyl]ammonium
##########          FlexRecCode: 1
##########               Number:                  293
##########   Ligand Source File: /raidb/db2/rgc/tcams/tcams-0002318.db2.gz
##########           GlobalRank: 32
##########                 Rank:                    1
##########               Setnum:                  101
##########             Matchnum:                  407
##########                Cloud:                    1
##########        Electrostatic:           -46.742493
##########        Van der Waals:           -27.625427
##########  Ligand Polar Desolv:             7.782544
########## Ligand Apolar Desolv:            -4.239429
##########      Internal Energy:             0.000000
##########      Receptor Energy: 0.0
########## Receptor Desolvation:             0.000000
########## Receptor Hydrophobic:             0.000000
##########         Total Energy: -70.82
##########        Ligand Charge:             2.000000
##########            Arbitrary:    +999.9990
##########     heavy atom count:   27
##########           pose count:    1
##########        Ligand Energy:             0.000000
# num electro vdwattr vdwrepu polsolv apolsol rdesolv rhydroe totalscore fullpol fullapo
#   1    0.19   -0.18    0.00   -0.39   -0.02    0.00    0.00      -0.39   -3.39   -0.19
#   2    0.19   -0.54    0.04   -0.86   -0.07    0.00    0.00      -1.23   -5.10   -0.44
#   3    0.08   -0.62    0.06    0.82   -0.14    0.00    0.00       0.19    4.11   -0.71
#   4   -0.60   -0.23    0.01    0.67   -0.06    0.00    0.00      -0.22    4.36   -0.42
#   5   10.78   -0.59    0.07   -5.60    0.16    0.00    0.00       4.81  -25.69    0.73
#   6  -10.44   -0.01    0.00    2.91    0.07    0.00    0.00      -7.46   23.51    0.57
#   7  -12.99   -0.02    0.00    5.98    0.14    0.00    0.00      -6.89   24.06    0.57
#   8    0.11   -0.30    0.01    0.04   -0.07    0.00    0.00      -0.20    0.24   -0.40
#   9    4.58   -0.60    0.13   -1.97   -0.05    0.00    0.00       2.09   -8.58   -0.24
#  10   -1.50   -0.46    0.04    0.65   -0.09    0.00    0.00      -1.36    2.94   -0.41
#  11   13.13   -0.83    0.03   -8.16    0.50    0.00    0.00       4.67  -26.79    1.64
#  12  -11.63   -0.01    0.00    4.00    0.11    0.00    0.00      -7.53   21.33    0.57
#  13   -9.82   -1.00    0.06    9.68   -1.75    0.00    0.00      -2.83   27.37   -4.95
#  14    4.34   -1.22    0.16   -7.00    0.38    0.00    0.00      -3.33  -21.28    1.16
#  15   -0.67   -1.36    0.15    0.98   -0.28    0.00    0.00      -1.18    2.66   -0.77
#  16    0.60   -1.51    0.26   -1.10   -0.20    0.00    0.00      -1.94   -2.68   -0.48
#  17    0.71   -1.86    0.61   -1.70   -0.24    0.00    0.00      -2.48   -3.32   -0.47
#  18    1.12   -2.33    0.79   -1.76   -0.25    0.00    0.00      -2.42   -3.24   -0.47
#  19    1.49   -2.11    0.35   -1.69   -0.27    0.00    0.00      -2.23   -2.99   -0.48
#  20   -1.13   -1.52    0.16    1.08   -0.37    0.00    0.00      -1.77    2.26   -0.77
#  21    9.43   -1.49    0.22   -9.32    0.54    0.00    0.00      -0.62  -20.95    1.21
#  22    3.93   -1.77    0.86   -5.06    0.32    0.00    0.00      -1.71  -17.43    1.12
#  23   -0.67   -2.28    1.61    0.77   -0.25    0.00    0.00      -0.81    2.39   -0.78
#  24    1.25   -3.49    3.59   -0.82   -0.20    0.00    0.00       0.33   -1.89   -0.46
#  25   -0.09   -2.46    0.85   -0.44   -0.14    0.00    0.00      -2.28   -0.92   -0.30
#  26    0.29   -5.28    2.92   -0.93   -0.67    0.00    0.00      -3.68   -1.39   -0.99
#  27    0.48   -2.27    0.73   -1.13   -0.21    0.00    0.00      -2.40   -2.38   -0.45
#  28   -0.10   -1.33    0.18   -0.06   -0.12    0.00    0.00      -1.42   -0.15   -0.30
#  29    0.07   -2.31    0.47   -0.45   -0.33    0.00    0.00      -2.55   -1.22   -0.91
#  30    0.36   -1.12    0.24   -0.79   -0.12    0.00    0.00      -1.43   -2.88   -0.43
#  31   -0.11   -0.03    0.00    0.13   -0.01    0.00    0.00      -0.03    3.73   -0.28
#  32   -0.10   -0.08    0.00    0.48   -0.02    0.00    0.00       0.28    5.80   -0.25
#  33   -0.15   -0.03    0.00   -0.01   -0.01    0.00    0.00      -0.21   -0.31   -0.22
#  34   -0.76   -0.06    0.00    0.72   -0.02    0.00    0.00      -0.12   10.34   -0.28
#  35   -0.93   -0.03    0.00    0.35   -0.01    0.00    0.00      -0.62   10.10   -0.25
#  36   -1.88   -0.07    0.00    0.60   -0.02    0.00    0.00      -1.37    9.58   -0.28
#  37   -1.40   -0.06    0.00    0.58   -0.02    0.00    0.00      -0.90    9.55   -0.28
#  38   -3.37   -0.23    0.07    1.08   -0.05    0.00    0.00      -2.50    6.12   -0.28
#  39   -4.26   -0.37    0.23    1.25   -0.06    0.00    0.00      -3.21    6.08   -0.28
#  40   -1.33   -0.12    0.01    0.72   -0.03    0.00    0.00      -0.76    6.56   -0.28
#  41   -0.58   -0.22    0.06    1.01   -0.04    0.00    0.00       0.24    6.59   -0.28
#  42   -1.26   -0.02    0.00    4.18    0.12    0.00    0.00       3.02   19.86    0.57
#  43   -0.74   -0.26    0.02    1.34   -0.08    0.00    0.00       0.28    4.94   -0.28
#  44   -1.23   -0.34    0.04    1.22   -0.12    0.00    0.00      -0.43    2.76   -0.28
#  45   -2.80   -0.69    0.44    1.27   -0.14    0.00    0.00      -1.93    2.46   -0.28
#  46   -3.35   -0.56    0.09    2.18   -0.16    0.00    0.00      -1.80    3.84   -0.28
#  47   -7.98   -0.04    0.00    5.99    0.20    0.00    0.00      -1.83   17.54    0.59
#  48  -12.13   -0.04    0.00    4.61    0.17    0.00    0.00      -7.39   16.45    0.59
#  49   -5.25   -1.34    2.74    1.29   -0.11    0.00    0.00      -2.67    3.22   -0.28
#  50   -0.62   -0.64    0.39    0.41   -0.13    0.00    0.00      -0.59    0.87   -0.28

@<TRIPOS>MOLECULE
          T543066        89
   50    53     0     0     0



@<TRIPOS>ATOM
      1 C1          2.9018    -7.6890    86.4374 C.3        1          -0.1125
      2 C2          3.9486    -6.6647    86.7927 C.2        1          -0.0776
      3 C3          4.4243    -6.4018    88.0198 C.2        1          -0.0225
      4 C4          3.9886    -7.0969    89.2840 C.3        1           0.0729
      5 N1          4.7273    -6.5434    90.4268 N.4        1          -0.5113
      6 H1          5.7166    -6.6856    90.2885 H          1           0.4332
      7 H2          4.5370    -5.5554    90.5034 H          1           0.4312
      8 C5          4.3025    -7.2209    91.6589 C.3        1          -0.0064
      9 C6          5.0719    -6.6443    92.8492 C.3        1          -0.1686
     10 C7          4.6295    -7.3500    94.1326 C.3        1           0.0996
     11 N2          5.3662    -6.7979    95.2723 N.pl3      1          -0.6566
     12 H3          5.2927    -5.8546    95.4862 H          1           0.4444
     13 C8          6.1220    -7.5759    96.0001 C.cat      1           0.6648
     14 N3          6.3138    -8.9192    95.7987 N.pl3      1          -0.5779
     15 C9          7.1848    -9.3866    96.7822 C.ar       1           0.0769
     16 C10         7.7135   -10.6405    97.0528 C.ar       1          -0.0848
     17 C11         8.5723   -10.8097    98.1214 C.ar       1          -0.0740
     18 C12         8.9074    -9.7332    98.9239 C.ar       1          -0.0734
     19 C13         8.3858    -8.4813    98.6625 C.ar       1          -0.0835
     20 C14         7.5231    -8.3012    97.5909 C.ar       1           0.0800
     21 N4          6.8592    -7.1829    97.0882 N.pl3      1          -0.5768
     22 N5          5.3642    -5.4088    87.9528 N.pl3      1          -0.5790
     23 C15         5.5196    -4.9989    86.6476 C.ar       1           0.1492
     24 C16         6.3235    -4.0437    86.0332 C.ar       1          -0.1234
     25 C17         6.2497    -3.8614    84.6687 C.ar       1           0.0192
     26 Cl1         7.2545    -2.6694    83.9053 Cl         1          -0.0242
     27 C18         5.3794    -4.6227    83.8986 C.ar       1          -0.1203
     28 C19         4.5808    -5.5665    84.4823 C.ar       1           0.0330
     29 Cl2         3.4973    -6.5128    83.5103 Cl         1          -0.0351
     30 C20         4.6447    -5.7715    85.8630 C.ar       1          -0.1189
     31 H4          2.5703    -8.1985    87.3423 H          1           0.0781
     32 H5          2.0524    -7.1926    85.9681 H          1           0.0703
     33 H6          3.3254    -8.4166    85.7453 H          1           0.0932
     34 H7          2.9199    -6.9433    89.4332 H          1           0.1447
     35 H8          4.1941    -8.1642    89.2011 H          1           0.1579
     36 H9          3.2338    -7.0671    91.8082 H          1           0.1426
     37 H10         4.5080    -8.2881    91.5761 H          1           0.1446
     38 H11         6.1406    -6.7980    92.6999 H          1           0.1100
     39 H12         4.8665    -5.5771    92.9320 H          1           0.1086
     40 H13         3.5608    -7.1960    94.2819 H          1           0.1060
     41 H14         4.8348    -8.4172    94.0498 H          1           0.1068
     42 H15         5.9124    -9.4520    95.0944 H          1           0.4541
     43 H16         7.4536   -11.4830    96.4292 H          1           0.1503
     44 H17         8.9834   -11.7860    98.3316 H          1           0.1576
     45 H18         9.5792    -9.8726    99.7580 H          1           0.1579
     46 H19         8.6490    -7.6437    99.2914 H          1           0.1516
     47 H20         6.9083    -6.2831    97.4472 H          1           0.4586
     48 H21         5.8483    -5.0475    88.7118 H          1           0.4251
     49 H22         7.0030    -3.4468    86.6234 H          1           0.1477
     50 H23         5.3331    -4.4676    82.8309 H          1           0.1568
@<TRIPOS>BOND
     1    1    2 1
     2    1   31 1
     3    1   32 1
     4    1   33 1
     5    2   30 1
     6    2    3 2
     7    3    4 1
     8    3   22 1
     9    4    5 1
    10    4   34 1
    11    4   35 1
    12    5    6 1
    13    5    7 1
    14    5    8 1
    15    8    9 1
    16    8   36 1
    17    8   37 1
    18    9   10 1
    19    9   38 1
    20    9   39 1
    21   10   11 1
    22   10   40 1
    23   10   41 1
    24   11   12 1
    25   11   13 2
    26   13   21 1
    27   13   14 1
    28   14   15 1
    29   14   42 1
    30   15   20 ar
    31   15   16 ar
    32   16   17 ar
    33   16   43 1
    34   17   18 ar
    35   17   44 1
    36   18   19 ar
    37   18   45 1
    38   19   20 ar
    39   19   46 1
    40   20   21 1
    41   21   47 1
    42   22   23 1
    43   22   48 1
    44   23   30 ar
    45   23   24 ar
    46   24   25 ar
    47   24   49 1
    48   25   26 1
    49   25   27 ar
    50   27   28 ar
    51   27   50 1
    52   28   29 1
    53   28   30 ar
##########                 Name:              T529795
##########          Protonation:                   92
##########               SMILES:   c1ccc(cc1)c2ccc(cc2)C[NH2+]CCC[NH+]=c3[nH]c4ccccc4[nH]3
##########            Long Name:   ydrobenzimidazol-2-ylidene-[3-[(4-phenylphenyl)methylammonio]propyl]ammonium
##########          FlexRecCode: 1
##########               Number:                  244
##########   Ligand Source File: /raidb/db2/rgc/tcams/tcams-0000596.db2.gz
##########           GlobalRank: 33
##########                 Rank:                    1
##########               Setnum:                   42
##########             Matchnum:                 1636
##########                Cloud:                    1
##########        Electrostatic:           -51.616863
##########        Van der Waals:           -30.568998
##########  Ligand Polar Desolv:            17.935642
########## Ligand Apolar Desolv:            -6.528121
##########      Internal Energy:             0.000000
##########      Receptor Energy: 0.0
########## Receptor Desolvation:             0.000000
########## Receptor Hydrophobic:             0.000000
##########         Total Energy: -70.78
##########        Ligand Charge:             2.000000
##########            Arbitrary:    +999.9990
##########     heavy atom count:   27
##########           pose count:    1
##########        Ligand Energy:             0.000000
# num electro vdwattr vdwrepu polsolv apolsol rdesolv rhydroe totalscore fullpol fullapo
#   1    3.82   -0.59    0.04   -2.42   -0.07    0.00    0.00       0.78   -8.20   -0.24
#   2    0.20   -1.00    0.16    0.11   -0.15    0.00    0.00      -0.68    0.29   -0.40
#   3   15.32   -0.87    0.09   -8.65    0.26    0.00    0.00       6.15  -24.68    0.73
#   4  -16.44   -0.02    0.00    5.56    0.14    0.00    0.00     -10.77   23.14    0.57
#   5  -11.14   -0.02    0.00    4.51    0.11    0.00    0.00      -6.54   23.14    0.57
#   6   -0.96   -0.43    0.02    0.77   -0.09    0.00    0.00      -0.69    3.49   -0.42
#   7    2.36   -0.89    0.11   -0.93   -0.10    0.00    0.00       0.54   -3.38   -0.37
#   8    1.35   -1.13    0.20   -0.79   -0.13    0.00    0.00      -0.50   -2.70   -0.45
#   9    1.44   -1.73    0.73   -1.16   -0.14    0.00    0.00      -0.86   -3.74   -0.44
#  10   -0.15   -1.32    0.14   -0.74   -0.15    0.00    0.00      -2.21   -2.04   -0.41
#  11    0.34   -2.77    1.29   -1.46   -0.17    0.00    0.00      -2.77   -3.74   -0.44
#  12    0.34   -2.17    1.67   -0.93   -0.15    0.00    0.00      -1.23   -2.71   -0.45
#  13    0.74   -1.59    0.34   -0.34   -0.17    0.00    0.00      -1.01   -0.82   -0.41
#  14    0.67   -1.53    0.20   -0.93   -0.22    0.00    0.00      -1.80   -1.84   -0.44
#  15    0.85   -2.00    0.29   -0.97   -0.28    0.00    0.00      -2.10   -1.65   -0.47
#  16    0.69   -2.85    1.39   -1.07   -0.28    0.00    0.00      -2.12   -1.82   -0.47
#  17    1.55   -2.96    2.02   -0.94   -0.27    0.00    0.00      -0.60   -1.65   -0.47
#  18    1.35   -2.02    0.66   -0.92   -0.22    0.00    0.00      -1.16   -1.84   -0.44
#  19   -1.82   -1.27    0.55    1.01   -0.14    0.00    0.00      -1.67    2.94   -0.41
#  20   11.90   -1.01    0.08   -9.00    0.56    0.00    0.00       2.54  -26.28    1.64
#  21   -7.98   -0.01    0.00    2.99    0.08    0.00    0.00      -4.92   20.99    0.57
#  22  -13.61   -1.33    0.13   11.44   -2.11    0.00    0.00      -5.48   26.86   -4.95
#  23   12.77   -2.45    0.50  -10.99    0.61    0.00    0.00       0.44  -20.91    1.16
#  24   -1.80   -2.53    0.51    1.59   -0.47    0.00    0.00      -2.71    2.59   -0.77
#  25    1.96   -4.57    1.68   -1.80   -0.33    0.00    0.00      -3.06   -2.66   -0.48
#  26    1.74   -5.73    4.08   -2.26   -0.33    0.00    0.00      -2.50   -3.25   -0.47
#  27    1.76   -4.67    2.97   -2.14   -0.32    0.00    0.00      -2.40   -3.19   -0.47
#  28    1.98   -3.49    2.20   -1.88   -0.31    0.00    0.00      -1.49   -2.93   -0.48
#  29   -1.91   -2.18    0.57    1.32   -0.46    0.00    0.00      -2.65    2.23   -0.77
#  30   13.78   -2.06    1.00   -9.24    0.54    0.00    0.00       4.02  -20.62    1.21
#  31   -1.87   -0.09    0.00    0.48   -0.02    0.00    0.00      -1.50    5.95   -0.28
#  32   -2.62   -0.18    0.01    1.09   -0.05    0.00    0.00      -1.75    5.95   -0.28
#  33   -5.68   -0.45    0.17    2.64   -0.09    0.00    0.00      -3.41    8.65   -0.28
#  34   -5.24   -0.49    0.11    3.73   -0.12    0.00    0.00      -2.02    8.65   -0.28
#  35   -1.65   -0.12    0.01    0.92   -0.03    0.00    0.00      -0.87    8.42   -0.28
#  36   -3.17   -0.12    0.01    0.89   -0.03    0.00    0.00      -2.41    8.42   -0.28
#  37   -3.01   -0.31    0.10    1.55   -0.06    0.00    0.00      -1.73    7.05   -0.28
#  38   -1.83   -1.28    3.32    0.54   -0.06    0.00    0.00       0.68    2.01   -0.22
#  39    0.12   -1.74    3.19    0.92   -0.10    0.00    0.00       2.40    2.00   -0.22
#  40   -0.21   -0.55    0.44    2.15   -0.09    0.00    0.00       1.75    7.04   -0.28
#  41   -0.67   -0.28    0.03    0.79   -0.07    0.00    0.00      -0.21    2.49   -0.22
#  42   -0.97   -0.54    0.15    0.81   -0.15    0.00    0.00      -0.70    1.52   -0.28
#  43   -0.28   -1.02    1.29    0.71   -0.18    0.00    0.00       0.53    1.13   -0.28
#  44   -2.29   -1.15    2.56    0.85   -0.16    0.00    0.00      -0.19    1.51   -0.28
#  45   -2.23   -0.35    0.04    1.12   -0.10    0.00    0.00      -1.52    2.48   -0.22
#  46   -2.24   -0.73    0.65    2.43   -0.11    0.00    0.00       0.00    6.30   -0.28
#  47   -1.30   -0.81    1.23    1.75   -0.08    0.00    0.00       0.79    6.31   -0.28
#  48   -9.51   -0.08    0.00    9.54    0.28    0.00    0.00       0.24   19.43    0.57
#  49   -3.42   -1.52    1.40    3.26   -0.19    0.00    0.00      -0.46    4.83   -0.28
#  50   -3.69   -1.73    1.52    2.04   -0.21    0.00    0.00      -2.07    2.76   -0.28
#  51   -3.85   -1.32    1.38    1.74   -0.20    0.00    0.00      -2.25    2.48   -0.28
#  52   -3.55   -0.92    1.28    2.46   -0.18    0.00    0.00      -0.92    3.86   -0.28
#  53  -13.57   -0.13    0.06    5.76    0.20    0.00    0.00      -7.69   17.37    0.59

@<TRIPOS>MOLECULE
          T529795        92
   53    56     0     0     0



@<TRIPOS>ATOM
      1 C1          2.2817    -5.1988    93.7654 C.3        1          -0.1682
      2 C2          3.7205    -4.6798    93.7259 C.3        1          -0.0061
      3 N1          4.5702    -5.5278    94.5727 N.4        1          -0.5094
      4 H1          5.5191    -5.1856    94.5467 H          1           0.4301
      5 H2          4.2299    -5.5036    95.5221 H          1           0.4301
      6 C3          4.5342    -6.9094    94.0746 C.3        1           0.0503
      7 C4          5.4059    -7.7794    94.9431 C.ar       1          -0.1868
      8 C5          6.7441    -7.9412    94.6334 C.ar       1          -0.0830
      9 C6          7.5470    -8.7368    95.4254 C.ar       1          -0.1156
     10 C7          7.0070    -9.3776    96.5388 C.ar       1           0.0182
     11 C8          5.6583    -9.2110    96.8461 C.ar       1          -0.1155
     12 C9          4.8659    -8.4087    96.0503 C.ar       1          -0.0829
     13 C10         7.8653   -10.2346    97.3937 C.ar       1          -0.0856
     14 C11         8.0004   -11.5922    97.1108 C.ar       1          -0.0984
     15 C12         8.8004   -12.3846    97.9091 C.ar       1          -0.1171
     16 C13         9.4669   -11.8334    98.9886 C.ar       1          -0.0958
     17 C14         9.3359   -10.4863    99.2742 C.ar       1          -0.1171
     18 C15         8.5435    -9.6834    98.4790 C.ar       1          -0.0984
     19 C16         1.3967    -4.3156    92.8836 C.3        1           0.0993
     20 N2          0.0190    -4.8125    92.9214 N.pl3      1          -0.6562
     21 H3         -0.1521    -5.7577    93.0560 H          1           0.4442
     22 C17        -0.9790    -3.9825    92.7739 C.cat      1           0.6650
     23 N3         -0.8699    -2.6300    92.5719 N.pl3      1          -0.5781
     24 C18        -2.1555    -2.1013    92.4635 C.ar       1           0.0770
     25 C19        -2.6296    -0.8137    92.2588 C.ar       1          -0.0848
     26 C20        -3.9899    -0.5828    92.1944 C.ar       1          -0.0743
     27 C21        -4.8826    -1.6313    92.3336 C.ar       1          -0.0736
     28 C22        -4.4199    -2.9165    92.5382 C.ar       1          -0.0836
     29 C23        -3.0553    -3.1583    92.6035 C.ar       1           0.0800
     30 N4         -2.3082    -4.3209    92.7897 N.pl3      1          -0.5772
     31 H4          2.2550    -6.2239    93.3961 H          1           0.1082
     32 H5          1.9140    -5.1725    94.7912 H          1           0.1082
     33 H6          4.0883    -4.7062    92.7002 H          1           0.1410
     34 H7          3.7472    -3.6547    94.0953 H          1           0.1410
     35 H8          3.5092    -7.2791    94.1026 H          1           0.1397
     36 H9          4.9019    -6.9357    93.0489 H          1           0.1397
     37 H10         7.1615    -7.4444    93.7701 H          1           0.1325
     38 H11         8.5918    -8.8628    95.1826 H          1           0.1398
     39 H12         5.2346    -9.7057    97.7075 H          1           0.1398
     40 H13         3.8214    -8.2750    96.2903 H          1           0.1326
     41 H14         7.4799   -12.0238    96.2687 H          1           0.1264
     42 H15         8.9058   -13.4370    97.6907 H          1           0.1322
     43 H16        10.0915   -12.4571    99.6107 H          1           0.1323
     44 H17         9.8583   -10.0611   100.1185 H          1           0.1323
     45 H18         8.4455    -8.6309    98.7003 H          1           0.1264
     46 H19         1.4235    -3.2905    93.2529 H          1           0.1061
     47 H20         1.7644    -4.3419    91.8578 H          1           0.1060
     48 H21        -0.0417    -2.1283    92.5148 H          1           0.4542
     49 H22        -1.9362     0.0072    92.1505 H          1           0.1502
     50 H23        -4.3585     0.4198    92.0349 H          1           0.1575
     51 H24        -5.9448    -1.4437    92.2825 H          1           0.1577
     52 H25        -5.1194    -3.7322    92.6472 H          1           0.1515
     53 H26        -2.6666    -5.2140    92.9118 H          1           0.4585
@<TRIPOS>BOND
     1    1    2 1
     2    1   19 1
     3    1   31 1
     4    1   32 1
     5    2    3 1
     6    2   33 1
     7    2   34 1
     8    3    4 1
     9    3    5 1
    10    3    6 1
    11    6    7 1
    12    6   35 1
    13    6   36 1
    14    7   12 ar
    15    7    8 ar
    16    8    9 ar
    17    8   37 1
    18    9   10 ar
    19    9   38 1
    20   10   11 ar
    21   10   13 1
    22   11   12 ar
    23   11   39 1
    24   12   40 1
    25   13   18 ar
    26   13   14 ar
    27   14   15 ar
    28   14   41 1
    29   15   16 ar
    30   15   42 1
    31   16   17 ar
    32   16   43 1
    33   17   18 ar
    34   17   44 1
    35   18   45 1
    36   19   20 1
    37   19   46 1
    38   19   47 1
    39   20   21 1
    40   20   22 2
    41   22   30 1
    42   22   23 1
    43   23   24 1
    44   23   48 1
    45   24   29 ar
    46   24   25 ar
    47   25   26 ar
    48   25   49 1
    49   26   27 ar
    50   26   50 1
    51   27   28 ar
    52   27   51 1
    53   28   29 ar
    54   28   52 1
    55   29   30 1
    56   30   53 1
##########                 Name:              T532255
##########          Protonation:                   82
##########               SMILES:   CC[NH+](CC)CCn1c2ccccc2n(c1=[NH2+])CC(=O)c3ccc(cc3)c4ccccc4
##########            Long Name:   ne-3-[2-oxo-2-(4-phenylphenyl)ethyl]benzimidazol-1-yl]ethyl-diethyl-ammonium
##########          FlexRecCode: 1
##########               Number:                    1
##########   Ligand Source File: /raidb/db2/rgc/tcams/tcams-0000988.db2.gz
##########           GlobalRank: 36
##########                 Rank:                    1
##########               Setnum:                  138
##########             Matchnum:                 6454
##########                Cloud:                    1
##########        Electrostatic:           -40.157734
##########        Van der Waals:           -28.316212
##########  Ligand Polar Desolv:             2.959469
########## Ligand Apolar Desolv:            -5.173746
##########      Internal Energy:             0.000000
##########      Receptor Energy: 0.0
########## Receptor Desolvation:             0.000000
########## Receptor Hydrophobic:             0.000000
##########         Total Energy: -70.69
##########        Ligand Charge:             2.000000
##########            Arbitrary:    +999.9990
##########     heavy atom count:   32
##########           pose count:    1
##########        Ligand Energy:             0.000000
# num electro vdwattr vdwrepu polsolv apolsol rdesolv rhydroe totalscore fullpol fullapo
#   1    2.32   -0.34    0.01   -1.63   -0.04    0.00    0.00       0.32   -7.90   -0.19
#   2    0.41   -0.68    0.12    0.01   -0.10    0.00    0.00      -0.25    0.03   -0.39
#   3    6.89   -0.44    0.03   -3.03    0.04    0.00    0.00       3.48  -16.03    0.19
#   4   -9.92   -0.01    0.00    3.63    0.08    0.00    0.00      -6.22   22.91    0.53
#   5    0.26   -0.29    0.01    0.03   -0.07    0.00    0.00      -0.05    0.20   -0.39
#   6    4.92   -0.88    0.16   -2.35   -0.06    0.00    0.00       1.81   -7.62   -0.19
#   7    0.43   -0.18    0.01   -0.21   -0.04    0.00    0.00       0.01   -1.84   -0.36
#   8   -0.68   -0.12    0.00    0.19   -0.03    0.00    0.00      -0.65    2.52   -0.43
#   9    5.31   -0.33    0.01   -2.82    0.18    0.00    0.00       2.34  -19.14    1.19
#  10  -10.93   -0.43    0.02    4.62   -0.82    0.00    0.00      -7.53   27.56   -4.87
#  11   14.11   -0.48    0.03   -4.97    0.14    0.00    0.00       8.84  -31.35    0.90
#  12   -6.35    0.00    0.00    1.38    0.03    0.00    0.00      -4.94   22.91    0.53
#  13  -10.31   -0.01    0.00    2.54    0.07    0.00    0.00      -7.72   19.96    0.53
#  14    7.73   -0.57    0.03   -3.78    0.21    0.00    0.00       3.63  -17.67    0.99
#  15   -1.13   -0.44    0.03    0.48   -0.08    0.00    0.00      -1.14    2.20   -0.38
#  16   -4.21   -0.64    0.07    2.16   -0.06    0.00    0.00      -2.68   11.55   -0.31
#  17   -0.93   -1.82    1.36   -2.83    0.09    0.00    0.00      -4.13  -12.23    0.39
#  18    3.12   -0.54    0.01   -0.86   -0.08    0.00    0.00       1.66   -4.20   -0.41
#  19    0.70   -0.52    0.02   -0.19   -0.10    0.00    0.00      -0.09   -0.90   -0.44
#  20    1.97   -0.83    0.10   -0.79   -0.12    0.00    0.00       0.33   -2.97   -0.44
#  21   -0.61   -1.04    0.07   -0.32   -0.15    0.00    0.00      -2.04   -0.91   -0.41
#  22    2.89   -1.43    0.21   -0.95   -0.16    0.00    0.00       0.55   -2.59   -0.44
#  23    0.86   -0.89    0.05   -0.50   -0.14    0.00    0.00      -0.61   -1.66   -0.45
#  24    1.93   -1.38    0.12   -0.43   -0.19    0.00    0.00       0.05   -0.92   -0.41
#  25    2.07   -1.97    0.36   -0.79   -0.22    0.00    0.00      -0.55   -1.58   -0.44
#  26    2.77   -2.94    1.23   -1.02   -0.29    0.00    0.00      -0.25   -1.67   -0.47
#  27    2.30   -2.42    0.39   -1.11   -0.32    0.00    0.00      -1.17   -1.63   -0.47
#  28    2.86   -2.49    0.44   -0.98   -0.30    0.00    0.00      -0.48   -1.54   -0.47
#  29    2.41   -2.22    0.46   -0.86   -0.24    0.00    0.00      -0.45   -1.59   -0.44
#  30   -0.98   -0.77    0.08    0.48   -0.17    0.00    0.00      -1.37    2.03   -0.73
#  31    0.58   -1.12    0.19   -1.01   -0.13    0.00    0.00      -1.49   -3.59   -0.46
#  32    0.44   -1.17    0.17   -1.10   -0.14    0.00    0.00      -1.81   -3.60   -0.47
#  33    0.53   -1.10    0.29   -1.04   -0.13    0.00    0.00      -1.45   -3.77   -0.47
#  34    0.65   -0.82    0.22   -0.45   -0.09    0.00    0.00      -0.49   -2.22   -0.46
#  35   -0.68   -0.62    0.08    0.71   -0.14    0.00    0.00      -0.66    3.64   -0.73
#  36   -1.11   -0.13    0.00    0.28   -0.03    0.00    0.00      -0.98    1.94   -0.22
#  37   -0.45   -0.05    0.00    0.16   -0.01    0.00    0.00      -0.36    3.47   -0.28
#  38   -1.60   -0.10    0.00    0.14   -0.02    0.00    0.00      -1.58    1.58   -0.28
#  39   -2.42   -0.32    0.09    1.52   -0.07    0.00    0.00      -1.19    6.17   -0.28
#  40   -3.62   -0.50    0.43    2.49   -0.06    0.00    0.00      -1.26    8.86   -0.21
#  41   -1.78   -0.07    0.00    0.36   -0.02    0.00    0.00      -1.50    4.98   -0.22
#  42   -1.47   -0.05    0.00    0.27   -0.01    0.00    0.00      -1.27    5.44   -0.28
#  43   -1.31   -0.25    0.04    0.86   -0.06    0.00    0.00      -0.72    4.06   -0.28
#  44   -3.96   -0.46    0.16    0.24   -0.08    0.00    0.00      -4.10    0.84   -0.28
#  45   -2.46   -0.33    0.07    1.04   -0.06    0.00    0.00      -1.75    3.56   -0.22
#  46   -0.92   -0.03    0.00    0.25   -0.01    0.00    0.00      -0.71    7.54   -0.22
#  47   -1.40   -0.09    0.01    0.57   -0.02    0.00    0.00      -0.94    6.68   -0.28
#  48   -0.97   -0.02    0.00    0.25   -0.01    0.00    0.00      -0.74    8.67   -0.22
#  49   -0.62   -0.03    0.00    0.30   -0.01    0.00    0.00      -0.35   10.64   -0.25
#  50   -3.72   -0.13    0.01    0.81   -0.03    0.00    0.00      -3.08    6.50   -0.28
#  51   -4.74   -0.23    0.07    1.59   -0.04    0.00    0.00      -3.36    9.51   -0.25
#  52   -0.45   -0.09    0.00    0.67   -0.02    0.00    0.00       0.11    7.82   -0.24
#  53   -2.00   -0.31    0.18    0.64   -0.04    0.00    0.00      -1.54    3.42   -0.21
#  54   -3.42   -0.59    0.22    0.59   -0.08    0.00    0.00      -3.28    1.55   -0.21
#  55   -3.90   -0.20    0.01    0.47   -0.06    0.00    0.00      -3.66    2.27   -0.27
#  56   -1.88   -0.66    0.58    1.17   -0.08    0.00    0.00      -0.87    3.03   -0.21
#  57   -3.04   -1.59    3.25    1.06   -0.16    0.00    0.00      -0.48    1.89   -0.28
#  58   -3.11   -0.64    0.15    0.75   -0.16    0.00    0.00      -3.00    1.29   -0.28
#  59   -3.20   -0.73    0.25    0.86   -0.17    0.00    0.00      -3.00    1.38   -0.28
#  60   -3.92   -0.91    0.85    0.85   -0.10    0.00    0.00      -3.23    1.82   -0.21
#  61   -1.16   -0.20    0.03    0.60   -0.05    0.00    0.00      -0.79    3.33   -0.28
#  62   -0.95   -0.21    0.01    0.54   -0.06    0.00    0.00      -0.67    2.44   -0.28
#  63   -1.40   -0.19    0.02    0.70   -0.05    0.00    0.00      -0.93    3.87   -0.28
#  64   -0.90   -0.10    0.01    0.71   -0.02    0.00    0.00      -0.30    8.55   -0.28

@<TRIPOS>MOLECULE
          T532255        82
   64    67     0     0     0



@<TRIPOS>ATOM
      1 C1         10.4728    -6.9124    88.5206 C.3        1          -0.1904
      2 C2          9.5119    -6.5334    89.6493 C.3        1          -0.0205
      3 N1          8.2500    -7.2672    89.4851 N.4        1          -0.3827
      4 H1          7.6162    -7.0173    90.2294 H          1           0.4247
      5 C3          7.6466    -6.9206    88.1913 C.3        1          -0.0165
      6 C4          7.3717    -5.4162    88.1435 C.3        1          -0.1905
      7 C5          8.5138    -8.7116    89.5311 C.3        1          -0.0427
      8 C6          7.2186    -9.4565    89.8602 C.3        1           0.0864
      9 N2          6.7160    -9.0102    91.1619 N.pl3      1          -0.4876
     10 C7          5.8481    -7.9696    91.3756 C.cat      1           0.6699
     11 N3          5.3306    -7.2082    90.4488 N.pl3      1          -0.7586
     12 H2          5.5537    -7.3587    89.5169 H          1           0.4406
     13 H3          4.7230    -6.4925    90.6926 H          1           0.4491
     14 N4          5.6129    -7.8602    92.7227 N.pl3      1          -0.4637
     15 C8          4.7413    -6.8736    93.3655 C.3        1           0.0517
     16 C9          3.3438    -7.4281    93.4666 C.2        1           0.3859
     17 O1          3.1721    -8.6238    93.5753 O.2        1          -0.4377
     18 C10         2.1886    -6.5199    93.4334 C.ar       1          -0.2012
     19 C11         0.9650    -6.9603    92.9146 C.ar       1          -0.0664
     20 C12        -0.1110    -6.1114    92.8848 C.ar       1          -0.1267
     21 C13         0.0124    -4.8090    93.3706 C.ar       1           0.0294
     22 C14         1.2313    -4.3674    93.8878 C.ar       1          -0.1277
     23 C15         2.3082    -5.2148    93.9259 C.ar       1          -0.0375
     24 C16        -1.1525    -3.8929    93.3367 C.ar       1          -0.0837
     25 C17        -1.3766    -3.0867    92.2215 C.ar       1          -0.0972
     26 C18        -2.4627    -2.2358    92.1956 C.ar       1          -0.1185
     27 C19        -3.3280    -2.1816    93.2736 C.ar       1          -0.0967
     28 C20        -3.1108    -2.9792    94.3829 C.ar       1          -0.1179
     29 C21        -2.0315    -3.8383    94.4176 C.ar       1          -0.0970
     30 C22         6.3462    -8.8512    93.3742 C.ar       1           0.0934
     31 C23         6.4818    -9.1966    94.7111 C.ar       1          -0.0785
     32 C24         7.2986   -10.2507    95.0706 C.ar       1          -0.0709
     33 C25         7.9834   -10.9641    94.1023 C.ar       1          -0.0727
     34 C26         7.8551   -10.6272    92.7689 C.ar       1          -0.0915
     35 C27         7.0321    -9.5738    92.3976 C.ar       1           0.0751
     36 H4         11.4092    -6.3679    88.6424 H          1           0.0864
     37 H5         10.6685    -7.9841    88.5546 H          1           0.0831
     38 H6         10.0252    -6.6551    87.5607 H          1           0.1132
     39 H7          9.9595    -6.7908    90.6093 H          1           0.1374
     40 H8          9.3161    -5.4618    89.6154 H          1           0.1287
     41 H9          8.3311    -7.1907    87.3872 H          1           0.1437
     42 H10         6.7102    -7.4651    88.0696 H          1           0.1351
     43 H11         6.9240    -5.1591    87.1835 H          1           0.0822
     44 H12         6.6870    -5.1463    88.9476 H          1           0.1147
     45 H13         8.3080    -4.8717    88.2654 H          1           0.0758
     46 H14         8.8879    -9.0436    88.5625 H          1           0.1405
     47 H15         9.2586    -8.9206    90.2992 H          1           0.1494
     48 H16         6.4740    -9.2475    89.0920 H          1           0.1418
     49 H17         7.4145   -10.5281    89.8945 H          1           0.1246
     50 H18         5.1175    -6.6524    94.3643 H          1           0.1604
     51 H19         4.7274    -5.9596    92.7718 H          1           0.1426
     52 H20         0.8692    -7.9680    92.5379 H          1           0.1316
     53 H21        -1.0550    -6.4509    92.4846 H          1           0.1409
     54 H22         1.3247    -3.3588    94.2627 H          1           0.1406
     55 H23         3.2499    -4.8742    94.3307 H          1           0.1372
     56 H24        -0.7013    -3.1277    91.3797 H          1           0.1273
     57 H25        -2.6373    -1.6108    91.3323 H          1           0.1315
     58 H26        -4.1764    -1.5136    93.2492 H          1           0.1312
     59 H27        -3.7898    -2.9325    95.2215 H          1           0.1316
     60 H28        -1.8656    -4.4640    95.2821 H          1           0.1274
     61 H29         5.9495    -8.6419    95.4696 H          1           0.1496
     62 H30         7.4037   -10.5192    96.1114 H          1           0.1593
     63 H31         8.6208   -11.7870    94.3903 H          1           0.1580
     64 H32         8.3916   -11.1856    92.0161 H          1           0.1429
@<TRIPOS>BOND
     1    1    2 1
     2    1   36 1
     3    1   37 1
     4    1   38 1
     5    2    3 1
     6    2   39 1
     7    2   40 1
     8    3    4 1
     9    3    5 1
    10    3    7 1
    11    5    6 1
    12    5   41 1
    13    5   42 1
    14    6   43 1
    15    6   44 1
    16    6   45 1
    17    7    8 1
    18    7   46 1
    19    7   47 1
    20    8    9 1
    21    8   48 1
    22    8   49 1
    23    9   35 1
    24    9   10 1
    25   10   11 2
    26   10   14 1
    27   11   12 1
    28   11   13 1
    29   14   15 1
    30   14   30 1
    31   15   16 1
    32   15   50 1
    33   15   51 1
    34   16   17 2
    35   16   18 1
    36   18   23 ar
    37   18   19 ar
    38   19   20 ar
    39   19   52 1
    40   20   21 ar
    41   20   53 1
    42   21   22 ar
    43   21   24 1
    44   22   23 ar
    45   22   54 1
    46   23   55 1
    47   24   29 ar
    48   24   25 ar
    49   25   26 ar
    50   25   56 1
    51   26   27 ar
    52   26   57 1
    53   27   28 ar
    54   27   58 1
    55   28   29 ar
    56   28   59 1
    57   29   60 1
    58   30   35 ar
    59   30   31 ar
    60   31   32 ar
    61   31   61 1
    62   32   33 ar
    63   32   62 1
    64   33   34 ar
    65   33   63 1
    66   34   35 ar
    67   34   64 1
##########                 Name:              T534924
##########          Protonation:                   97
##########               SMILES:   C[NH+](CC[C@H](c1ccc(c(c1)Cl)Cl)O)C[C@@H]2C[C@@H]2C(=O)c3ccc(cc3)OC
##########            Long Name:   xy-propyl]-[[(1R,2S)-2-(4-methoxybenzoyl)cyclopropyl]methyl]-methyl-ammonium
##########          FlexRecCode: 1
##########               Number:                   22
##########   Ligand Source File: /raidb/db2/rgc/tcams/tcams-0001289.db2.gz
##########           GlobalRank: 36
##########                 Rank:                    1
##########               Setnum:                  150
##########             Matchnum:                 3908
##########                Cloud:                    1
##########        Electrostatic:           -41.496708
##########        Van der Waals:           -30.997961
##########  Ligand Polar Desolv:             6.289446
########## Ligand Apolar Desolv:            -4.487054
##########      Internal Energy:             0.000000
##########      Receptor Energy: 0.0
########## Receptor Desolvation:             0.000000
########## Receptor Hydrophobic:             0.000000
##########         Total Energy: -70.69
##########        Ligand Charge:             1.000000
##########            Arbitrary:    +999.9990
##########     heavy atom count:   28
##########           pose count:    1
##########        Ligand Energy:             0.000000
# num electro vdwattr vdwrepu polsolv apolsol rdesolv rhydroe totalscore fullpol fullapo
#   1   -0.12   -1.73    0.41    0.05    0.02    0.00    0.00      -1.37    0.09    0.03
#   2    2.88   -1.67    0.37   -1.07    0.49    0.00    0.00       1.00   -1.96    0.90
#   3   -1.62   -1.70    0.48    0.31   -0.14    0.00    0.00      -2.68    0.67   -0.31
#   4    2.84   -1.68    0.32   -0.95   -0.21    0.00    0.00       0.32   -1.91   -0.42
#   5    0.11   -1.31    0.12   -0.19   -0.18    0.00    0.00      -1.45   -0.48   -0.45
#   6    1.49   -1.32    0.21   -0.93   -0.14    0.00    0.00      -0.70   -2.76   -0.41
#   7    0.07   -1.74    0.43   -0.04   -0.16    0.00    0.00      -1.43   -0.12   -0.44
#   8    0.95   -1.48    0.19   -0.78   -0.19    0.00    0.00      -1.31   -1.86   -0.46
#   9   -3.08   -1.26    0.43    1.92   -0.08    0.00    0.00      -2.07    6.83   -0.28
#  10    0.02   -2.01    1.60   -1.73    0.08    0.00    0.00      -2.04   -7.03    0.33
#  11    3.35   -0.53    0.02   -1.45   -0.11    0.00    0.00       1.29   -4.98   -0.37
#  12    4.18   -0.99    0.25   -1.26   -0.16    0.00    0.00       2.02   -3.33   -0.41
#  13    5.10   -0.63    0.10   -0.66   -0.09    0.00    0.00       3.82   -2.56   -0.36
#  14   -0.55   -0.46    0.05    0.18   -0.05    0.00    0.00      -0.83    0.87   -0.24
#  15   13.55   -1.63    1.28   -3.04    0.09    0.00    0.00      10.24  -11.40    0.33
#  16  -24.49   -0.18    0.08    4.81    0.16    0.00    0.00     -19.62   16.12    0.55
#  17    1.68   -1.15    0.37   -0.75   -0.14    0.00    0.00       0.01   -2.44   -0.46
#  18    0.15   -0.50    0.07    0.06   -0.07    0.00    0.00      -0.30    0.27   -0.34
#  19    5.33   -1.12    0.37   -1.39   -0.05    0.00    0.00       3.14   -4.84   -0.19
#  20   -2.51   -0.38    0.02    0.74   -0.03    0.00    0.00      -2.16    3.67   -0.14
#  21    3.87   -0.23    0.00   -1.46    0.19    0.00    0.00       2.37  -12.32    1.64
#  22    1.59   -1.09    0.16   -0.46   -0.11    0.00    0.00       0.09   -1.49   -0.35
#  23    2.56   -1.42    0.18   -0.54   -0.18    0.00    0.00       0.60   -1.35   -0.44
#  24    2.87   -2.59    1.04   -0.68   -0.21    0.00    0.00       0.42   -1.47   -0.46
#  25    0.43   -3.05    2.62   -0.38   -0.15    0.00    0.00      -0.53   -0.74   -0.29
#  26    0.36   -5.48    3.30   -0.46   -0.66    0.00    0.00      -2.94   -0.66   -0.95
#  27    0.14   -2.16    0.62   -0.31   -0.13    0.00    0.00      -1.84   -0.71   -0.29
#  28    0.11   -5.81    4.24   -0.36   -0.49    0.00    0.00      -2.32   -0.70   -0.95
#  29    0.38   -1.44    0.32   -0.44   -0.14    0.00    0.00      -1.32   -1.37   -0.44
#  30    0.05   -1.04    0.88    0.44   -0.16    0.00    0.00       0.17    0.72   -0.26
#  31   -0.48   -0.61    0.24    0.35   -0.15    0.00    0.00      -0.65    0.62   -0.26
#  32   -0.78   -0.42    0.06    0.49   -0.12    0.00    0.00      -0.76    1.12   -0.28
#  33   -2.43   -0.35    0.04    0.55   -0.10    0.00    0.00      -2.30    1.23   -0.22
#  34   -2.12   -0.24    0.02    0.32   -0.06    0.00    0.00      -2.08    1.32   -0.26
#  35    0.16   -0.54    0.30    1.03   -0.06    0.00    0.00       0.89    3.74   -0.21
#  36   -0.96   -0.28    0.02    0.48   -0.10    0.00    0.00      -0.82    1.42   -0.28
#  37   -2.45   -0.18    0.01    0.64   -0.04    0.00    0.00      -2.02    3.49   -0.22
#  38   -4.43   -0.36    0.06    1.20   -0.11    0.00    0.00      -3.64    2.94   -0.28
#  39   -3.60   -0.45    0.21    0.52   -0.08    0.00    0.00      -3.40    1.78   -0.28
#  40   -4.32   -0.19    0.02    1.07   -0.04    0.00    0.00      -3.45    6.27   -0.22
#  41   -2.77   -0.10    0.00    0.33   -0.02    0.00    0.00      -2.56    3.20   -0.23
#  42   -1.80   -0.08    0.00    0.24   -0.02    0.00    0.00      -1.66    3.33   -0.26
#  43   -4.28   -0.68    0.42    1.73   -0.08    0.00    0.00      -2.89    4.77   -0.22
#  44   -1.93   -0.12    0.01    0.71   -0.03    0.00    0.00      -1.36    5.14   -0.22
#  45   -3.99   -0.37    0.09    1.11   -0.08    0.00    0.00      -3.23    3.97   -0.28
#  46   -2.66   -0.09    0.00    0.34   -0.02    0.00    0.00      -2.43    4.13   -0.28
#  47   -1.88   -0.06    0.00    0.24   -0.02    0.00    0.00      -1.72    4.04   -0.26
#  48   -3.05   -0.60    0.37    1.34   -0.07    0.00    0.00      -2.01    4.32   -0.21
#  49   -4.17   -0.79    0.72    1.18   -0.09    0.00    0.00      -3.15    3.74   -0.28
#  50   -1.97   -0.07    0.00    0.19   -0.02    0.00    0.00      -1.88    2.65   -0.28
#  51   -2.83    0.00    0.00    0.35    0.04    0.00    0.00      -2.45   10.05    1.01
#  52   -3.89   -0.21    0.01    1.34   -0.07    0.00    0.00      -2.82    4.93   -0.24
#  53   -6.02   -1.00    1.60    0.93   -0.13    0.00    0.00      -4.63    2.01   -0.28
#  54   -0.50   -0.19    0.02    0.44   -0.04    0.00    0.00      -0.27    2.79   -0.28

@<TRIPOS>MOLECULE
          T534924        97
   54    56     0     0     0



@<TRIPOS>ATOM
      1 C1          9.2157   -12.5804    98.3345 C.3        1           0.0208
      2 O1          8.9994   -11.1859    98.5599 O.3        1          -0.3068
      3 C2          8.1737   -10.5433    97.6965 C.ar       1           0.1782
      4 C3          7.9256    -9.1842    97.8564 C.ar       1          -0.2247
      5 C4          7.0921    -8.5299    96.9861 C.ar       1          -0.0091
      6 C5          6.4903    -9.2325    95.9349 C.ar       1          -0.2251
      7 C6          6.7435   -10.6009    95.7783 C.ar       1          -0.0268
      8 C7          7.5828   -11.2447    96.6509 C.ar       1          -0.1669
      9 C8          5.5964    -8.5369    95.0001 C.2        1           0.4340
     10 O2          5.0763    -9.1477    94.0903 O.2        1          -0.4682
     11 C9          5.3253    -7.0644    95.1711 C.3        1          -0.1863
     12 C10         6.3670    -6.0862    94.6248 C.3        1          -0.1310
     13 C11         5.0237    -6.2506    93.9113 C.3        1          -0.1793
     14 C12         5.0203    -6.9940    92.5740 C.3        1           0.0239
     15 N1          5.1934    -6.0311    91.4780 N.4        1          -0.3841
     16 H1          5.8718    -5.3342    91.7468 H          1           0.4248
     17 C13         3.9087    -5.3791    91.1915 C.3        1          -0.0571
     18 C14         5.6639    -6.7351    90.2776 C.3        1          -0.0065
     19 C15         6.3105    -5.7330    89.3192 C.3        1          -0.1809
     20 C16         6.8005    -6.4662    88.0689 C.3        1           0.1607
     21 O3          5.8399    -7.4533    87.6885 O.3        1          -0.5447
     22 C17         6.9782    -5.4786    86.9447 C.ar       1          -0.1184
     23 C18         8.1941    -4.8446    86.7676 C.ar       1          -0.0960
     24 C19         8.3584    -3.9386    85.7370 C.ar       1          -0.0916
     25 C20         7.3059    -3.6659    84.8813 C.ar       1          -0.0249
     26 Cl1         7.5119    -2.5284    83.5861 Cl         1          -0.0309
     27 C21         6.0886    -4.3011    85.0584 C.ar       1          -0.0290
     28 Cl2         4.7672    -3.9604    83.9851 Cl         1          -0.0319
     29 C22         5.9275    -5.2113    86.0877 C.ar       1          -0.0862
     30 H2          9.8935   -12.9703    99.0940 H          1           0.0622
     31 H3          8.2643   -13.1093    98.3907 H          1           0.0628
     32 H4          9.6542   -12.7251    97.3472 H          1           0.1098
     33 H5          8.3899    -8.6432    98.6677 H          1           0.1399
     34 H6          6.8998    -7.4745    97.1114 H          1           0.1377
     35 H7          6.2818   -11.1473    94.9692 H          1           0.1387
     36 H8          7.7819   -12.2991    96.5287 H          1           0.1428
     37 H9          4.8043    -6.7857    96.0872 H          1           0.1429
     38 H10         6.5317    -5.1636    95.1813 H          1           0.1232
     39 H11         7.2485    -6.5076    94.1414 H          1           0.1154
     40 H12         4.3045    -5.4361    93.9984 H          1           0.1366
     41 H13         5.8377    -7.7148    92.5570 H          1           0.1447
     42 H14         4.0719    -7.5171    92.4516 H          1           0.1314
     43 H15         4.0372    -4.6647    90.3783 H          1           0.1246
     44 H16         3.1759    -6.1321    90.9013 H          1           0.1241
     45 H17         3.5596    -4.8568    92.0824 H          1           0.1240
     46 H18         6.3966    -7.4899    90.5627 H          1           0.1342
     47 H19         4.8193    -7.2165    89.7844 H          1           0.1380
     48 H20         5.5777    -4.9782    89.0341 H          1           0.0949
     49 H21         7.1549    -5.2515    89.8125 H          1           0.1017
     50 H22         7.7538    -6.9500    88.2817 H          1           0.1230
     51 H23         5.6750    -8.1233    88.3660 H          1           0.3803
     52 H24         9.0158    -5.0572    87.4353 H          1           0.1363
     53 H25         9.3083    -3.4433    85.5997 H          1           0.1491
     54 H26         4.9792    -5.7102    86.2237 H          1           0.1457
@<TRIPOS>BOND
     1    1    2 1
     2    1   30 1
     3    1   31 1
     4    1   32 1
     5    2    3 1
     6    3    8 ar
     7    3    4 ar
     8    4    5 ar
     9    4   33 1
    10    5    6 ar
    11    5   34 1
    12    6    7 ar
    13    6    9 1
    14    7    8 ar
    15    7   35 1
    16    8   36 1
    17    9   10 2
    18    9   11 1
    19   11   13 1
    20   11   12 1
    21   11   37 1
    22   12   13 1
    23   12   38 1
    24   12   39 1
    25   13   14 1
    26   13   40 1
    27   14   15 1
    28   14   41 1
    29   14   42 1
    30   15   16 1
    31   15   17 1
    32   15   18 1
    33   17   43 1
    34   17   44 1
    35   17   45 1
    36   18   19 1
    37   18   46 1
    38   18   47 1
    39   19   20 1
    40   19   48 1
    41   19   49 1
    42   20   21 1
    43   20   22 1
    44   20   50 1
    45   21   51 1
    46   22   29 ar
    47   22   23 ar
    48   23   24 ar
    49   23   52 1
    50   24   25 ar
    51   24   53 1
    52   25   26 1
    53   25   27 ar
    54   27   28 1
    55   27   29 ar
    56   29   54 1
##########                 Name:              T542684
##########          Protonation:                   11
##########               SMILES:   C[NH+](CC[NH3+])Cc1cccc(c1)c2cccc(c2)c3[nH]c4ccc(cc4n3)C(F)(F)F
##########            Long Name:   3-[3-[5-(trifluoromethyl)-1H-benzimidazol-2-yl]phenyl]phenyl]methyl]ammonium
##########          FlexRecCode: 1
##########               Number:                   46
##########   Ligand Source File: /raidb/db2/rgc/tcams/tcams-0002274.db2.gz
##########           GlobalRank: 36
##########                 Rank:                    1
##########               Setnum:                   40
##########             Matchnum:                 2675
##########                Cloud:                    1
##########        Electrostatic:           -68.216606
##########        Van der Waals:           -23.526917
##########  Ligand Polar Desolv:            24.172033
########## Ligand Apolar Desolv:            -3.121212
##########      Internal Energy:             0.000000
##########      Receptor Energy: 0.0
########## Receptor Desolvation:             0.000000
########## Receptor Hydrophobic:             0.000000
##########         Total Energy: -70.69
##########        Ligand Charge:             2.000000
##########            Arbitrary:    +999.9990
##########     heavy atom count:   31
##########           pose count:    1
##########        Ligand Energy:             0.000000
# num electro vdwattr vdwrepu polsolv apolsol rdesolv rhydroe totalscore fullpol fullapo
#   1    2.38   -1.34    0.22   -2.06   -0.21    0.00    0.00      -1.01   -4.38   -0.44
#   2   12.08   -0.93    0.15   -6.43    0.11    0.00    0.00       4.99  -19.15    0.33
#   3  -15.53   -0.02    0.00    4.59    0.10    0.00    0.00     -10.86   24.37    0.55
#   4    1.36   -0.98    0.24   -0.80   -0.12    0.00    0.00      -0.29   -2.57   -0.37
#   5    0.93   -0.66    0.13   -0.38   -0.11    0.00    0.00      -0.08   -1.57   -0.47
#   6   25.27   -2.53    4.62  -10.39    0.24    0.00    0.00      17.21  -37.08    0.86
#   7  -27.32   -0.28    0.17    8.98    0.19    0.00    0.00     -18.24   27.31    0.58
#   8  -17.60   -0.04    0.00    6.04    0.13    0.00    0.00     -11.46   27.48    0.58
#   9  -12.96   -0.01    0.00    4.14    0.09    0.00    0.00      -8.75   26.61    0.60
#  10   -0.85   -0.48    0.02    0.89   -0.09    0.00    0.00      -0.51    3.37   -0.36
#  11    2.24   -1.03    0.10   -1.24   -0.11    0.00    0.00      -0.03   -3.70   -0.33
#  12    1.44   -1.71    0.26   -1.00   -0.19    0.00    0.00      -1.20   -2.34   -0.45
#  13    1.31   -2.42    0.70   -2.15   -0.24    0.00    0.00      -2.79   -4.29   -0.47
#  14    0.73   -2.05    0.58   -1.59   -0.20    0.00    0.00      -2.53   -3.48   -0.44
#  15    0.16   -1.34    0.17   -0.88   -0.15    0.00    0.00      -2.03   -2.47   -0.41
#  16    0.77   -1.22    0.31   -0.61   -0.10    0.00    0.00      -0.85   -2.03   -0.33
#  17    0.46   -1.21    0.13   -0.32   -0.14    0.00    0.00      -1.08   -0.96   -0.41
#  18    0.58   -1.47    0.20   -0.59   -0.19    0.00    0.00      -1.46   -1.39   -0.44
#  19    0.93   -1.32    0.09   -1.30   -0.23    0.00    0.00      -1.83   -2.62   -0.47
#  20    0.87   -1.36    0.17   -0.85   -0.18    0.00    0.00      -1.35   -2.14   -0.45
#  21    0.11   -1.38    0.72   -0.39   -0.12    0.00    0.00      -1.06   -1.35   -0.41
#  22    0.44   -1.44    0.69   -0.48   -0.12    0.00    0.00      -0.90   -1.74   -0.42
#  23   -2.08   -1.29    0.89    0.74   -0.49    0.00    0.00      -2.23    3.19   -2.13
#  24    3.30   -1.15    0.79   -0.52    0.34    0.00    0.00       2.77   -3.12    2.04
#  25   -0.20   -0.43    0.06   -0.02   -0.10    0.00    0.00      -0.69   -0.15   -0.79
#  26    0.02   -0.20    0.01   -0.03   -0.04    0.00    0.00      -0.24   -0.33   -0.44
#  27    0.27   -0.12    0.00   -0.06   -0.02    0.00    0.00       0.08   -1.17   -0.38
#  28    0.03   -0.14    0.00   -0.04   -0.02    0.00    0.00      -0.17   -0.77   -0.44
#  29    0.01   -0.41    0.05   -0.10   -0.06    0.00    0.00      -0.50   -0.82   -0.47
#  30   -0.14   -0.55    0.06    0.07   -0.13    0.00    0.00      -0.68    0.44   -0.78
#  31    1.97   -1.20    0.30   -1.57    0.28    0.00    0.00      -0.21   -6.33    1.14
#  32   -0.75   -0.09    0.00    0.15    0.00    0.00    0.00      -0.70    2.46   -0.07
#  33    0.47   -0.12    0.00   -0.08   -0.05    0.00    0.00       0.23   -0.80   -0.48
#  34    0.24   -0.07    0.00   -0.06   -0.03    0.00    0.00       0.08   -0.88   -0.45
#  35    0.23   -0.06    0.00   -0.05   -0.03    0.00    0.00       0.09   -0.75   -0.45
#  36   -4.10   -0.45    0.10    3.02   -0.10    0.00    0.00      -1.54    8.37   -0.28
#  37   -4.22   -0.57    0.26    0.87   -0.07    0.00    0.00      -3.73    2.47   -0.21
#  38   -5.46   -0.60    0.15    4.59   -0.12    0.00    0.00      -1.44    9.08   -0.23
#  39   -3.74   -0.17    0.01    2.04   -0.05    0.00    0.00      -1.90   11.38   -0.28
#  40   -7.27   -0.80    0.60    4.13   -0.10    0.00    0.00      -3.44   11.29   -0.28
#  41   -2.58   -0.08    0.00    0.65   -0.01    0.00    0.00      -2.02    9.21   -0.21
#  42   -3.57   -0.17    0.02    1.69   -0.05    0.00    0.00      -2.08    9.20   -0.28
#  43   -2.76   -0.14    0.00    1.23   -0.04    0.00    0.00      -1.71    9.48   -0.28
#  44   -1.60   -0.13    0.01    1.11   -0.03    0.00    0.00      -0.64    9.76   -0.27
#  45   -2.66   -0.48    0.14    2.97   -0.11    0.00    0.00      -0.15    7.55   -0.28
#  46   -2.12   -0.69    0.20    0.81   -0.15    0.00    0.00      -1.95    1.54   -0.28
#  47   -1.72   -0.51    0.24   -0.01   -0.07    0.00    0.00      -2.07   -0.03   -0.22
#  48   -0.89   -0.20    0.04    1.27   -0.03    0.00    0.00       0.20    8.35   -0.21
#  49   -0.65   -0.61    0.43    2.72   -0.08    0.00    0.00       1.82    7.81   -0.22
#  50   -1.19   -0.32    0.02    2.23   -0.13    0.00    0.00       0.61    4.78   -0.28
#  51   -1.57   -0.49    0.19    0.86   -0.08    0.00    0.00      -1.09    2.61   -0.24
#  52   -1.51   -0.27    0.11    0.10   -0.03    0.00    0.00      -1.61    0.56   -0.20
#  53   -1.04   -0.04    0.00    0.02   -0.01    0.00    0.00      -1.06    0.62   -0.27
#  54   -0.06   -0.02    0.00    0.04   -0.01    0.00    0.00      -0.05    1.83   -0.27
#  55    0.14   -0.16    0.05    0.31   -0.03    0.00    0.00       0.30    2.88   -0.28
#  56   -0.80   -0.05    0.00    1.90    0.14    0.00    0.00       1.19    7.14    0.53

@<TRIPOS>MOLECULE
          T542684        11
   56    59     0     0     0



@<TRIPOS>ATOM
      1 C1          4.5777    -4.3708    95.1214 C.3        1          -0.0687
      2 N1          4.5935    -5.5307    94.2201 N.4        1          -0.3811
      3 H1          5.5482    -5.7972    94.0318 H          1           0.4324
      4 C2          3.9250    -5.1806    92.9598 C.3        1          -0.0404
      5 C3          4.3576    -6.1576    91.8646 C.3        1          -0.0338
      6 N2          5.8134    -6.0786    91.6852 N.4        1          -0.6306
      7 H2          6.0690    -5.1399    91.4185 H          1           0.4457
      8 H3          6.2725    -6.3193    92.5510 H          1           0.4454
      9 H4          6.0987    -6.7230    90.9630 H          1           0.4579
     10 C4          3.8876    -6.6526    94.8535 C.3        1           0.0473
     11 C5          4.8022    -7.3268    95.8436 C.ar       1          -0.1692
     12 C6          4.8246    -6.9053    97.1610 C.ar       1          -0.0943
     13 C7          5.6618    -7.5192    98.0746 C.ar       1          -0.1017
     14 C8          6.4803    -8.5568    97.6759 C.ar       1          -0.0701
     15 C9          6.4616    -8.9856    96.3505 C.ar       1          -0.0209
     16 C10         5.6118    -8.3671    95.4354 C.ar       1          -0.0943
     17 C11         7.3392   -10.1006    95.9160 C.ar       1          -0.0693
     18 C12         7.6867   -11.1075    96.8161 C.ar       1          -0.0935
     19 C13         8.5028   -12.1464    96.4139 C.ar       1          -0.1091
     20 C14         8.9802   -12.1955    95.1193 C.ar       1          -0.0860
     21 C15         8.6398   -11.1934    94.2093 C.ar       1          -0.0138
     22 C16         7.8119   -10.1460    94.6088 C.ar       1          -0.0542
     23 C17         9.1524   -11.2459    92.8225 C.2        1           0.3153
     24 N3          8.9008   -10.3582    91.8920 N.2        1          -0.4650
     25 C18         9.5261   -10.7129    90.7433 C.ar       1           0.0442
     26 C19         9.5948   -10.1389    89.4695 C.ar       1          -0.0037
     27 C20        10.3249   -10.7461    88.4878 C.ar       1          -0.1816
     28 C21        11.0020   -11.9311    88.7392 C.ar       1          -0.0520
     29 C22        10.9490   -12.5156    89.9870 C.ar       1          -0.1060
     30 C23        10.2127   -11.9136    90.9980 C.ar       1           0.0828
     31 N4          9.9653   -12.2259    92.3204 N.pl3      1          -0.5898
     32 C24        10.3954   -10.1232    87.1175 C.3        1           0.5123
     33 F1          9.6409    -8.9451    87.1014 F          1          -0.1730
     34 F2         11.7272    -9.8282    86.8073 F          1          -0.1720
     35 F3          9.8833   -11.0177    86.1715 F          1          -0.1749
     36 H5          3.5463    -4.0828    95.3250 H          1           0.1319
     37 H6          5.0736    -4.6305    96.0567 H          1           0.1405
     38 H7          5.1013    -3.5383    94.6515 H          1           0.1243
     39 H8          2.8448    -5.2392    93.0929 H          1           0.1544
     40 H9          4.2011    -4.1663    92.6716 H          1           0.1535
     41 H10         4.0814    -7.1719    92.1528 H          1           0.1555
     42 H11         3.8617    -5.8978    90.9294 H          1           0.1567
     43 H12         3.0036    -6.2801    95.3708 H          1           0.1420
     44 H13         3.5866    -7.3700    94.0901 H          1           0.1436
     45 H14         4.1861    -6.0936    97.4771 H          1           0.1324
     46 H15         5.6755    -7.1860    99.1018 H          1           0.1435
     47 H16         7.1342    -9.0351    98.3900 H          1           0.1450
     48 H17         5.5901    -8.6985    94.4078 H          1           0.1343
     49 H18         7.3168   -11.0745    97.8301 H          1           0.1255
     50 H19         8.7691   -12.9235    97.1151 H          1           0.1388
     51 H20         9.6181   -13.0104    94.8103 H          1           0.1301
     52 H21         7.5417    -9.3706    93.9073 H          1           0.1458
     53 H22         9.0711    -9.2172    89.2627 H          1           0.1473
     54 H23        11.5744   -12.3990    87.9519 H          1           0.1506
     55 H24        11.4778   -13.4379    90.1768 H          1           0.1417
     56 H25        10.3026   -12.9971    92.8024 H          1           0.4282
@<TRIPOS>BOND
     1    1    2 1
     2    1   36 1
     3    1   37 1
     4    1   38 1
     5    2    3 1
     6    2    4 1
     7    2   10 1
     8    4    5 1
     9    4   39 1
    10    4   40 1
    11    5    6 1
    12    5   41 1
    13    5   42 1
    14    6    7 1
    15    6    8 1
    16    6    9 1
    17   10   11 1
    18   10   43 1
    19   10   44 1
    20   11   16 ar
    21   11   12 ar
    22   12   13 ar
    23   12   45 1
    24   13   14 ar
    25   13   46 1
    26   14   15 ar
    27   14   47 1
    28   15   16 ar
    29   15   17 1
    30   16   48 1
    31   17   22 ar
    32   17   18 ar
    33   18   19 ar
    34   18   49 1
    35   19   20 ar
    36   19   50 1
    37   20   21 ar
    38   20   51 1
    39   21   22 ar
    40   21   23 1
    41   22   52 1
    42   23   31 1
    43   23   24 2
    44   24   25 1
    45   25   30 ar
    46   25   26 ar
    47   26   27 ar
    48   26   53 1
    49   27   28 ar
    50   27   32 1
    51   28   29 ar
    52   28   54 1
    53   29   30 ar
    54   29   55 1
    55   30   31 1
    56   31   56 1
    57   32   33 1
    58   32   34 1
    59   32   35 1
##########                 Name:              T528772
##########          Protonation:                   12
##########               SMILES:   )N[C@@H](N1OCCCCCCON\2[C@H](NC(=[NH+]/C2=N\[H])N)/C=C/c3ccccc3)/C=C/c4ccccc4
##########            Long Name:   m-3-yl]oxy]hexoxy]-4-imino-6-[(E)-styryl]-1,3,5-triazinan-2-ylidene]ammonium
##########          FlexRecCode: 1
##########               Number:                   47
##########   Ligand Source File: /raidb/db2/rgc/tcams/tcams-0000747.db2.gz
##########           GlobalRank: 37
##########                 Rank:                    1
##########               Setnum:                  370
##########             Matchnum:                 1977
##########                Cloud:                    1
##########        Electrostatic:           -49.076057
##########        Van der Waals:           -29.823141
##########  Ligand Polar Desolv:            13.661698
########## Ligand Apolar Desolv:            -5.443840
##########      Internal Energy:             0.000000
##########      Receptor Energy: 0.0
########## Receptor Desolvation:             0.000000
########## Receptor Hydrophobic:             0.000000
##########         Total Energy: -70.68
##########        Ligand Charge:             2.000000
##########            Arbitrary:    +999.9990
##########     heavy atom count:   40
##########           pose count:    1
##########        Ligand Energy:             0.000000
# num electro vdwattr vdwrepu polsolv apolsol rdesolv rhydroe totalscore fullpol fullapo
#   1    0.41   -0.12    0.00   -1.46    0.05    0.00    0.00      -1.12  -25.51    0.91
#   2   -0.46   -0.14    0.01    1.50   -0.29    0.00    0.00       0.61   24.44   -4.77
#   3    0.38   -0.07    0.00   -0.59    0.03    0.00    0.00      -0.25  -18.75    1.05
#   4   -0.23    0.00    0.00    0.21    0.01    0.00    0.00      -0.01   15.24    0.58
#   5   -0.42   -0.09    0.00    0.54   -0.17    0.00    0.00      -0.14   14.84   -4.65
#   6    0.43   -0.12    0.00   -0.84    0.08    0.00    0.00      -0.45  -15.78    1.42
#   7    0.42   -0.13    0.00   -0.71    0.06    0.00    0.00      -0.37  -11.80    0.93
#   8    0.08   -0.10    0.00   -0.13    0.02    0.00    0.00      -0.13   -2.58    0.47
#   9   -0.03   -0.17    0.01    0.10   -0.01    0.00    0.00      -0.11    0.82   -0.12
#  10    0.14   -0.19    0.01   -0.25   -0.03    0.00    0.00      -0.32   -2.00   -0.24
#  11    0.20   -0.47    0.05   -0.51   -0.06    0.00    0.00      -0.79   -1.99   -0.22
#  12    0.19   -0.41    0.02   -0.50   -0.05    0.00    0.00      -0.75   -2.00   -0.22
#  13    0.87   -0.82    0.11   -0.73   -0.09    0.00    0.00      -0.65   -2.00   -0.24
#  14   -0.22   -0.65    0.08    0.26   -0.04    0.00    0.00      -0.57    0.78   -0.12
#  15   -0.34   -2.36    3.43   -0.75    0.13    0.00    0.00       0.11   -2.71    0.48
#  16    4.13   -1.02    0.29   -2.74    0.21    0.00    0.00       0.87  -12.09    0.94
#  17   -5.05   -0.72    0.10    3.95   -0.32    0.00    0.00      -2.04   12.17   -1.00
#  18   16.60   -1.15    0.10   -8.18    0.61    0.00    0.00       7.98  -22.53    1.67
#  19  -26.56   -1.53    0.46   10.42   -1.92    0.00    0.00     -19.12   25.16   -4.63
#  20   32.57   -3.65    4.32  -12.68    0.47    0.00    0.00      21.04  -24.21    0.90
#  21  -16.09   -0.04    0.00    9.20    0.32    0.00    0.00      -6.62   17.45    0.60
#  22  -31.30   -0.34    0.41    8.64    0.30    0.00    0.00     -22.28   17.14    0.60
#  23   23.94   -1.50    0.72   -5.76    0.32    0.00    0.00      17.72  -20.04    1.10
#  24  -11.32   -0.61    0.04    3.01   -0.90    0.00    0.00      -9.78   14.90   -4.47
#  25    9.37   -0.46    0.02   -2.61    0.24    0.00    0.00       6.57  -15.34    1.42
#  26    2.21   -1.20    0.20   -1.53   -0.13    0.00    0.00      -0.45   -4.72   -0.39
#  27    0.10   -1.77    0.36   -0.57   -0.18    0.00    0.00      -2.06   -1.43   -0.45
#  28    0.82   -1.51    0.24   -0.52   -0.16    0.00    0.00      -1.13   -1.37   -0.41
#  29    0.78   -1.20    0.15   -0.72   -0.15    0.00    0.00      -1.14   -2.12   -0.44
#  30    1.11   -1.29    0.19   -0.92   -0.19    0.00    0.00      -1.10   -2.29   -0.47
#  31    0.95   -1.61    0.24   -1.08   -0.23    0.00    0.00      -1.72   -2.20   -0.47
#  32    1.34   -1.83    0.40   -1.19   -0.25    0.00    0.00      -1.53   -2.23   -0.47
#  33    1.08   -2.31    1.43   -0.98   -0.22    0.00    0.00      -0.99   -2.04   -0.45
#  34   -0.39   -0.22    0.02    1.79   -0.15    0.00    0.00       1.05   12.13   -1.00
#  35    0.50   -0.38    0.05   -2.85    0.21    0.00    0.00      -2.47  -21.83    1.64
#  36    0.24   -0.57    0.08   -0.93   -0.07    0.00    0.00      -1.26   -4.92   -0.39
#  37    0.01   -1.58    0.71   -0.39   -0.14    0.00    0.00      -1.40   -1.31   -0.45
#  38    0.06   -1.57    0.48   -0.55   -0.16    0.00    0.00      -1.73   -1.43   -0.41
#  39    0.09   -0.76    0.05   -0.71   -0.14    0.00    0.00      -1.48   -2.15   -0.44
#  40    0.08   -1.46    0.24   -0.94   -0.19    0.00    0.00      -2.28   -2.32   -0.47
#  41    0.00   -3.05    1.14   -1.24   -0.26    0.00    0.00      -3.42   -2.21   -0.47
#  42   -0.03   -3.65    1.64   -1.38   -0.29    0.00    0.00      -3.71   -2.26   -0.47
#  43    0.01   -3.51    2.09   -1.10   -0.24    0.00    0.00      -2.75   -2.04   -0.45
#  44   -0.25    0.00    0.00    0.89    0.03    0.00    0.00       0.68   17.37    0.60
#  45   -0.21    0.00    0.00    0.21    0.01    0.00    0.00       0.01   17.06    0.59
#  46   -0.20    0.00    0.00    0.18    0.01    0.00    0.00       0.00    7.75    0.58
#  47   -0.12   -0.08    0.01    0.05   -0.02    0.00    0.00      -0.17    0.57   -0.27
#  48   -0.06   -0.06    0.00    0.12   -0.02    0.00    0.00      -0.02    1.92   -0.28
#  49   -0.07   -0.04    0.00    0.08   -0.01    0.00    0.00      -0.04    1.79   -0.28
#  50   -0.11   -0.04    0.00    0.03   -0.01    0.00    0.00      -0.14    0.65   -0.28
#  51   -0.18   -0.24    0.05    0.17   -0.06    0.00    0.00      -0.26    0.77   -0.28
#  52   -0.10   -0.27    0.10    0.42   -0.07    0.00    0.00       0.09    1.77   -0.28
#  53   -0.05   -0.14    0.02    0.25   -0.04    0.00    0.00       0.04    1.70   -0.28
#  54   -0.18   -0.07    0.00    0.05   -0.02    0.00    0.00      -0.22    0.74   -0.28
#  55   -1.05   -0.32    0.07    0.21   -0.08    0.00    0.00      -1.17    0.71   -0.28
#  56   -0.50   -0.50    0.16    0.66   -0.11    0.00    0.00      -0.28    1.76   -0.28
#  57   -0.99   -0.10    0.00    0.16   -0.03    0.00    0.00      -0.95    1.73   -0.28
#  58   -1.33   -0.23    0.02    0.18   -0.08    0.00    0.00      -1.46    0.57   -0.27
#  59   -1.24   -0.32    0.06    1.54   -0.08    0.00    0.00      -0.04    5.45   -0.27
#  60  -10.82   -0.03    0.00    4.86    0.17    0.00    0.00      -5.81   16.63    0.59
#  61  -20.97   -0.05    0.00    3.87    0.15    0.00    0.00     -17.00   15.07    0.59
#  62   -7.16   -0.01    0.00    0.64    0.05    0.00    0.00      -6.47    8.07    0.60
#  63   -1.25   -0.17    0.01    0.46   -0.03    0.00    0.00      -0.98    3.02   -0.21
#  64   -1.10   -0.61    0.33    1.69   -0.10    0.00    0.00       0.21    4.60   -0.27
#  65   -0.76   -0.20    0.02    0.59   -0.04    0.00    0.00      -0.38    3.35   -0.21
#  66   -1.19   -0.24    0.03    0.45   -0.07    0.00    0.00      -1.01    1.92   -0.28
#  67   -1.39   -0.72    0.81    0.55   -0.11    0.00    0.00      -0.85    1.37   -0.28
#  68   -1.59   -0.63    0.66    0.89   -0.14    0.00    0.00      -0.80    1.81   -0.28
#  69   -2.07   -0.76    0.90    1.34   -0.12    0.00    0.00      -0.72    3.20   -0.28
#  70   -0.16   -0.09    0.01    0.71   -0.03    0.00    0.00       0.43    5.96   -0.27
#  71   -0.31   -0.01    0.00    2.23    0.08    0.00    0.00       1.98   16.92    0.59
#  72   -0.12   -0.06    0.00    0.17   -0.01    0.00    0.00      -0.02    3.13   -0.21
#  73   -0.13   -0.66    0.80    1.67   -0.09    0.00    0.00       1.59    4.81   -0.27
#  74   -0.13   -0.07    0.00    0.20   -0.01    0.00    0.00      -0.01    3.42   -0.21
#  75   -0.14   -0.33    0.08    0.51   -0.07    0.00    0.00       0.05    1.93   -0.28
#  76    0.04   -1.31    1.40    0.81   -0.16    0.00    0.00       0.77    1.38   -0.28
#  77    0.10   -0.99    0.57    1.24   -0.19    0.00    0.00       0.73    1.83   -0.28
#  78    0.01   -1.30    1.15    2.01   -0.17    0.00    0.00       1.69    3.29   -0.28

@<TRIPOS>MOLECULE
          T528772        12
   78    81     0     0     0



@<TRIPOS>ATOM
      1 N1         -4.5883   -11.9479    84.2814 N.pl3      1          -0.7642
      2 C1         -3.8608   -11.6325    85.3552 C.cat      1           0.7469
      3 N2         -3.5627   -12.5759    86.2737 N.pl3      1          -0.6385
      4 H1         -3.8748   -13.4859    86.1497 H          1           0.4495
      5 C2         -2.8241   -12.2555    87.3759 C.2        1           0.6085
      6 N3         -2.5388   -13.1670    88.2670 N.2        1          -0.6875
      7 N4         -2.3806   -10.9557    87.5390 N.pl3      1          -0.4881
      8 O1         -1.2173   -10.6713    88.2945 O.3        1          -0.0850
      9 C3         -1.4675   -10.4415    89.6826 C.3        1           0.0218
     10 C4         -0.2911    -9.6771    90.2930 C.3        1          -0.1122
     11 C5         -0.5591    -9.4311    91.7791 C.3        1          -0.1131
     12 C6          0.6173    -8.6667    92.3897 C.3        1          -0.1134
     13 C7          0.3494    -8.4206    93.8759 C.3        1          -0.1130
     14 C8          1.5258    -7.6561    94.4865 C.3        1           0.0198
     15 O2          2.7213    -8.4248    94.3389 O.3        1          -0.0938
     16 N5          3.9114    -7.6653    94.4481 N.pl3      1          -0.5000
     17 C9          4.5801    -7.4590    95.7471 C.3        1           0.4351
     18 N6          4.9790    -6.0404    95.8150 N.pl3      1          -0.7186
     19 C10         5.5536    -5.4931    94.6818 C.cat      1           0.7714
     20 N7          6.6381    -4.7182    94.7491 N.pl3      1          -0.7316
     21 H2          7.0441    -4.5257    95.6088 H          1           0.4497
     22 H3          7.0204    -4.3474    93.9384 H          1           0.4469
     23 N8          4.9548    -5.7858    93.4931 N.pl3      1          -0.6832
     24 C11         4.5087    -7.0832    93.3350 C.2        1           0.6055
     25 N9          4.6370    -7.7277    92.2061 N.2        1          -0.6512
     26 C12         5.7994    -8.3395    95.8417 C.2        1          -0.2468
     27 C13         6.2045    -8.7862    97.0223 C.2        1          -0.0129
     28 C14         7.4004    -9.6498    97.1150 C.ar       1          -0.0935
     29 C15         7.8591   -10.3347    95.9892 C.ar       1          -0.0996
     30 C16         8.9761   -11.1393    96.0823 C.ar       1          -0.1209
     31 C17         9.6407   -11.2682    97.2889 C.ar       1          -0.0958
     32 C18         9.1907   -10.5922    98.4090 C.ar       1          -0.1186
     33 C19         8.0790    -9.7792    98.3274 C.ar       1          -0.0903
     34 C20        -3.1544    -9.8766    86.9028 C.3        1           0.4270
     35 N10        -3.4063   -10.3462    85.5285 N.pl3      1          -0.6909
     36 C21        -2.3517    -8.6014    86.8787 C.2        1          -0.2499
     37 C22        -2.9685    -7.4289    86.9271 C.2        1          -0.0086
     38 C23        -2.1811    -6.1781    86.9034 C.ar       1          -0.0952
     39 C24        -0.8286    -6.1951    87.2460 C.ar       1          -0.0990
     40 C25        -0.0993    -5.0240    87.2218 C.ar       1          -0.1210
     41 C26        -0.7064    -3.8349    86.8596 C.ar       1          -0.0947
     42 C27        -2.0471    -3.8113    86.5192 C.ar       1          -0.1187
     43 C28        -2.7860    -4.9764    86.5330 C.ar       1          -0.0893
     44 H4         -4.7959   -11.2697    83.6201 H          1           0.4479
     45 H5         -4.9058   -12.8566    84.1606 H          1           0.4446
     46 H6         -2.8520   -14.0772    88.1473 H          1           0.3656
     47 H7         -2.3795    -9.8552    89.7951 H          1           0.0791
     48 H8         -1.5844   -11.3971    90.1937 H          1           0.0630
     49 H9          0.6208   -10.2634    90.1805 H          1           0.0759
     50 H10        -0.1742    -8.7215    89.7818 H          1           0.0792
     51 H11        -1.4711    -8.8449    91.8918 H          1           0.0706
     52 H12        -0.6760   -10.3867    92.2903 H          1           0.0687
     53 H13         1.5292    -9.2529    92.2772 H          1           0.0689
     54 H14         0.7343    -7.7110    91.8787 H          1           0.0707
     55 H15        -0.5627    -7.8344    93.9885 H          1           0.0773
     56 H16         0.2326    -9.3762    94.3871 H          1           0.0757
     57 H17         1.6426    -6.7006    93.9753 H          1           0.0629
     58 H18         1.3348    -7.4809    95.5452 H          1           0.0793
     59 H19         3.8911    -7.6897    96.5596 H          1           0.1502
     60 H20         4.8440    -5.5143    96.6188 H          1           0.4530
     61 H21         4.8505    -5.1199    92.7955 H          1           0.4541
     62 H22         5.0581    -7.2960    91.4463 H          1           0.3683
     63 H23         6.3432    -8.6066    94.9476 H          1           0.1236
     64 H24         5.6607    -8.5192    97.9163 H          1           0.1323
     65 H25         7.3408   -10.2354    95.0469 H          1           0.1185
     66 H26         9.3322   -11.6699    95.2118 H          1           0.1286
     67 H27        10.5144   -11.8996    97.3567 H          1           0.1306
     68 H28         9.7136   -10.6976    99.3481 H          1           0.1318
     69 H29         7.7317    -9.2480    99.2013 H          1           0.1296
     70 H30        -4.0946    -9.7223    87.4324 H          1           0.1558
     71 H31        -3.2581    -9.7642    84.7668 H          1           0.4518
     72 H32        -1.2740    -8.6427    86.8219 H          1           0.1255
     73 H33        -4.0462    -7.3876    86.9840 H          1           0.1331
     74 H34        -0.3538    -7.1227    87.5297 H          1           0.1187
     75 H35         0.9476    -5.0358    87.4868 H          1           0.1290
     76 H36        -0.1312    -2.9210    86.8425 H          1           0.1310
     77 H37        -2.5154    -2.8797    86.2381 H          1           0.1322
     78 H38        -3.8313    -4.9577    86.2621 H          1           0.1299
@<TRIPOS>BOND
     1    1    2 1
     2    1   44 1
     3    1   45 1
     4    2   35 1
     5    2    3 2
     6    3    4 1
     7    3    5 1
     8    5    6 2
     9    5    7 1
    10    6   46 1
    11    7    8 1
    12    7   34 1
    13    8    9 1
    14    9   10 1
    15    9   47 1
    16    9   48 1
    17   10   11 1
    18   10   49 1
    19   10   50 1
    20   11   12 1
    21   11   51 1
    22   11   52 1
    23   12   13 1
    24   12   53 1
    25   12   54 1
    26   13   14 1
    27   13   55 1
    28   13   56 1
    29   14   15 1
    30   14   57 1
    31   14   58 1
    32   15   16 1
    33   16   24 1
    34   16   17 1
    35   17   18 1
    36   17   26 1
    37   17   59 1
    38   18   19 1
    39   18   60 1
    40   19   20 2
    41   19   23 1
    42   20   21 1
    43   20   22 1
    44   23   24 1
    45   23   61 1
    46   24   25 2
    47   25   62 1
    48   26   27 2
    49   26   63 1
    50   27   28 1
    51   27   64 1
    52   28   33 ar
    53   28   29 ar
    54   29   30 ar
    55   29   65 1
    56   30   31 ar
    57   30   66 1
    58   31   32 ar
    59   31   67 1
    60   32   33 ar
    61   32   68 1
    62   33   69 1
    63   34   35 1
    64   34   36 1
    65   34   70 1
    66   35   71 1
    67   36   37 2
    68   36   72 1
    69   37   38 1
    70   37   73 1
    71   38   43 ar
    72   38   39 ar
    73   39   40 ar
    74   39   74 1
    75   40   41 ar
    76   40   75 1
    77   41   42 ar
    78   41   76 1
    79   42   43 ar
    80   42   77 1
    81   43   78 1
##########                 Name:              T535438
##########          Protonation:                   96
##########               SMILES:   (cc(c1)N2CCCS2(=O)=O)C(=O)N[C@H](Cc3ccccc3)[C@@H](C[NH2+]Cc4cc(cc(c4)OC)OC)O
##########            Long Name:   zolidin-2-yl)-5-(ethylamino)benzoyl]amino]-2-hydroxy-4-phenyl-butyl]ammonium
##########          FlexRecCode: 1
##########               Number:                  372
##########   Ligand Source File: /raidb/db2/rgc/tcams/tcams-0001436.db2.gz
##########           GlobalRank: 38
##########                 Rank:                    1
##########               Setnum:                  344
##########             Matchnum:                 1110
##########                Cloud:                    1
##########        Electrostatic:           -50.732903
##########        Van der Waals:           -30.756353
##########  Ligand Polar Desolv:            12.438524
########## Ligand Apolar Desolv:            -1.597203
##########      Internal Energy:             0.000000
##########      Receptor Energy: 0.0
########## Receptor Desolvation:             0.000000
########## Receptor Hydrophobic:             0.000000
##########         Total Energy: -70.65
##########        Ligand Charge:             1.000000
##########            Arbitrary:    +999.9990
##########     heavy atom count:   42
##########           pose count:    1
##########        Ligand Energy:             0.000000
# num electro vdwattr vdwrepu polsolv apolsol rdesolv rhydroe totalscore fullpol fullapo
#   1    4.22   -2.49    1.02   -1.83   -0.13    0.00    0.00       0.79   -2.92   -0.20
#   2   -3.22   -1.67    0.48    1.12   -0.22    0.00    0.00      -3.51    2.18   -0.43
#   3   18.26   -1.96    0.82   -5.37    0.78    0.00    0.00      12.53  -11.64    1.70
#   4   -4.78   -1.46    0.57    1.11   -0.25    0.00    0.00      -4.81    3.17   -0.71
#   5    3.58   -0.87    0.08   -0.72   -0.12    0.00    0.00       1.94   -2.40   -0.41
#   6    0.52   -0.54    0.02   -0.11   -0.08    0.00    0.00      -0.19   -0.57   -0.41
#   7    0.49   -0.48    0.03   -0.14   -0.07    0.00    0.00      -0.18   -0.78   -0.41
#   8   -0.85   -0.74    0.06    0.22   -0.19    0.00    0.00      -1.50    0.82   -0.69
#   9    2.37   -1.47    0.40   -0.68   -0.15    0.00    0.00       0.47   -2.02   -0.44
#  10    1.15   -0.66    0.04   -1.12    0.28    0.00    0.00      -0.31   -4.17    1.04
#  11   -0.08   -0.39    0.03    0.11   -0.11    0.00    0.00      -0.44    0.45   -0.45
#  12    0.12   -0.58    0.10   -0.40   -0.07    0.00    0.00      -0.83   -1.54   -0.28
#  13    0.30   -1.30    0.57   -2.06   -0.06    0.00    0.00      -2.56   -4.77   -0.15
#  14   -1.88   -1.74    0.20    0.87   -0.08    0.00    0.00      -2.62    2.26   -0.20
#  15    0.29   -2.63    1.24    1.78    0.67    0.00    0.00       1.34    3.71    1.40
#  16    0.98   -0.70    0.04    1.24    0.46    0.00    0.00       2.02    4.16    1.55
#  17   -6.41   -0.45    0.01    1.08   -0.08    0.00    0.00      -5.85    6.40   -0.48
#  18    2.93   -0.38    0.01   -0.41    0.05    0.00    0.00       2.20   -2.66    0.32
#  19   13.34   -0.57    0.01   -3.14    0.37    0.00    0.00      10.02  -14.36    1.70
#  20   -2.10   -0.43    0.02    0.61   -0.05    0.00    0.00      -1.94    2.81   -0.22
#  21    1.52   -0.62    0.03   -0.52   -0.07    0.00    0.00       0.34   -1.54   -0.20
#  22    1.26   -1.10    0.08   -0.15   -0.08    0.00    0.00       0.01   -0.40   -0.23
#  23    0.75   -1.98    0.55   -0.23   -0.13    0.00    0.00      -1.04   -0.58   -0.32
#  24    0.96   -1.91    0.48    0.00   -0.20    0.00    0.00      -0.66    0.01   -0.47
#  25    1.65   -1.53    0.19    0.09   -0.22    0.00    0.00       0.19    0.19   -0.47
#  26    2.14   -2.11    0.62   -0.10   -0.21    0.00    0.00       0.34   -0.23   -0.47
#  27    2.32   -1.54    0.38   -0.32   -0.19    0.00    0.00       0.64   -0.74   -0.45
#  28   -2.35   -0.70    0.19    0.84   -0.03    0.00    0.00      -2.05    3.36   -0.12
#  29   25.18   -2.89    4.35   -6.76    0.62    0.00    0.00      20.50  -16.94    1.55
#  30    1.31   -0.59    0.13   -0.25   -0.08    0.00    0.00       0.53   -1.17   -0.36
#  31   20.14   -2.70    4.91   -5.21    0.21    0.00    0.00      17.35  -18.01    0.73
#  32  -27.35   -0.34    0.27    6.06    0.19    0.00    0.00     -21.18   17.53    0.54
#  33  -16.13   -0.03    0.00    4.27    0.14    0.00    0.00     -11.75   17.34    0.57
#  34   -1.22   -0.67    0.13    0.56   -0.10    0.00    0.00      -1.29    2.39   -0.42
#  35    2.48   -1.48    0.42   -0.17   -0.10    0.00    0.00       1.14   -0.61   -0.37
#  36    4.82   -1.77    0.84   -1.06   -0.14    0.00    0.00       2.69   -3.44   -0.46
#  37   -4.79   -1.80    0.94    0.53   -0.11    0.00    0.00      -5.23    1.48   -0.31
#  38    6.18   -1.46    0.41   -1.64    0.36    0.00    0.00       3.85   -4.20    0.93
#  39   -0.49   -1.51    0.50    0.09    0.01    0.00    0.00      -1.40    0.21    0.03
#  40    8.58   -1.69    0.31   -1.68   -0.16    0.00    0.00       5.35   -4.09   -0.38
#  41   -5.28   -1.72    0.36    0.54   -0.13    0.00    0.00      -6.23    1.32   -0.31
#  42    8.42   -1.88    0.43   -1.75    0.42    0.00    0.00       5.64   -3.89    0.93
#  43   -0.77   -2.81    3.28    0.11    0.02    0.00    0.00      -0.18    0.21    0.03
#  44    4.08   -1.79    0.76   -1.13   -0.15    0.00    0.00       1.78   -3.48   -0.46
#  45   -1.89   -1.37    1.20    1.17   -0.18    0.00    0.00      -1.08    1.79   -0.28
#  46   -1.54   -0.61    0.14    0.46   -0.16    0.00    0.00      -1.70    0.83   -0.28
#  47   -1.63   -0.96    0.68    0.28   -0.18    0.00    0.00      -1.81    0.44   -0.28
#  48   -1.42   -0.48    0.15    1.06   -0.10    0.00    0.00      -0.79    2.78   -0.27
#  49   -2.26   -1.08    1.54    0.75   -0.12    0.00    0.00      -1.17    1.71   -0.27
#  50   -9.80   -0.03    0.00    2.04    0.19    0.00    0.00      -7.60    6.04    0.57
#  51   -2.83   -0.17    0.01    0.99   -0.03    0.00    0.00      -2.04    5.09   -0.18
#  52   -0.25   -0.05    0.00   -0.03   -0.01    0.00    0.00      -0.34   -0.61   -0.19
#  53   -1.64   -0.64    0.88    0.54   -0.09    0.00    0.00      -0.95    1.60   -0.27
#  54   -0.12   -0.06    0.00    0.09   -0.02    0.00    0.00      -0.11    1.46   -0.28
#  55   -0.17   -0.22    0.06    0.45   -0.07    0.00    0.00       0.04    1.86   -0.28
#  56   -0.11   -0.10    0.01    0.32   -0.03    0.00    0.00       0.09    2.93   -0.28
#  57   -0.09   -0.24    0.07    0.30   -0.06    0.00    0.00      -0.03    1.34   -0.28
#  58   -0.04   -1.02    2.74    0.85   -0.11    0.00    0.00       2.43    2.21   -0.28
#  59   -0.06   -0.55    0.17    0.86   -0.12    0.00    0.00       0.30    1.97   -0.28
#  60   -8.67   -0.01    0.00    1.48    0.04    0.00    0.00      -7.15   11.84    0.33
#  61   -0.63   -0.20    0.06    0.25   -0.04    0.00    0.00      -0.56    1.78   -0.26
#  62   -2.15   -0.24    0.02    0.48   -0.06    0.00    0.00      -1.95    2.16   -0.28
#  63   -1.25   -0.22    0.01    0.45   -0.06    0.00    0.00      -1.06    1.91   -0.26
#  64    0.26   -0.94    0.99    0.44   -0.11    0.00    0.00       0.65    1.16   -0.28
#  65   -0.59   -0.74    0.56   -0.13   -0.10    0.00    0.00      -0.99   -0.37   -0.28
#  66   -1.84   -0.33    0.05   -0.13   -0.08    0.00    0.00      -2.34   -0.46   -0.28
#  67   -2.65   -0.92    0.99    0.08   -0.13    0.00    0.00      -2.63    0.18   -0.28
#  68   -3.34   -0.36    0.08    0.65   -0.11    0.00    0.00      -3.09    1.64   -0.28
#  69   -3.98   -0.19    0.02    1.00   -0.05    0.00    0.00      -3.19    5.62   -0.28
#  70  -28.57   -0.53    0.99    5.14    0.41    0.00    0.00     -22.56   13.44    1.06
#  71   -2.36   -0.07    0.00    0.41   -0.02    0.00    0.00      -2.04    6.10   -0.28
#  72   -3.23   -0.14    0.01    0.95   -0.04    0.00    0.00      -2.45    6.66   -0.25
#  73   -2.29   -0.06    0.00    0.40   -0.02    0.00    0.00      -1.97    6.41   -0.28
#  74   -2.93   -0.18    0.02    1.33   -0.05    0.00    0.00      -1.82    7.25   -0.28
#  75   -3.80   -0.31    0.07    1.28   -0.07    0.00    0.00      -2.83    4.95   -0.28
#  76   -1.02   -0.42    0.09    0.30   -0.10    0.00    0.00      -1.15    0.77   -0.27
#  77   -1.44   -0.41    0.26    0.17   -0.08    0.00    0.00      -1.50    0.60   -0.27
#  78   -3.64   -0.98    0.91    0.75   -0.14    0.00    0.00      -3.11    1.46   -0.28
#  79   -5.35   -0.53    0.19    0.47   -0.06    0.00    0.00      -5.29    1.21   -0.16
#  80   -1.53   -0.70    0.42    0.30   -0.14    0.00    0.00      -1.65    0.59   -0.27
#  81   -2.35   -1.16    1.30    0.40   -0.14    0.00    0.00      -1.94    0.77   -0.27
#  82   -5.19   -1.57    5.33    0.58   -0.12    0.00    0.00      -0.97    1.31   -0.28
#  83   -1.00   -0.42    0.28    0.96   -0.06    0.00    0.00      -0.25    4.22   -0.28

@<TRIPOS>MOLECULE
          T535438        96
   83    86     0     0     0



@<TRIPOS>ATOM
      1 C1         -2.7887    -3.1719    95.3715 C.3        1          -0.1697
      2 C2         -1.7185    -4.0359    94.7014 C.3        1           0.1222
      3 N1         -2.1020    -4.2984    93.3120 N.pl3      1          -0.7450
      4 C3         -1.2753    -5.0714    92.4933 C.ar       1           0.2433
      5 C4         -0.0940    -5.5950    92.9983 C.ar       1          -0.1997
      6 C5          0.7306    -6.3672    92.1802 C.ar       1          -0.0534
      7 C6          0.3641    -6.6101    90.8562 C.ar       1          -0.1678
      8 C7         -0.8182    -6.0836    90.3578 C.ar       1           0.2606
      9 C8         -1.6396    -5.3196    91.1766 C.ar       1          -0.2026
     10 N2         -1.1859    -6.3260    89.0320 N.pl3      1          -0.9317
     11 C9         -1.9953    -7.4439    88.5361 C.3        1           0.0626
     12 C10        -2.1285    -7.4019    87.0146 C.3        1          -0.1305
     13 C11        -2.2180    -5.9036    86.6824 C.3        1          -0.5888
     14 S1         -0.7969    -5.3979    87.7039 S.o2       1           2.5504
     15 O1         -0.9120    -4.0434    88.1177 O.2        1          -0.9367
     16 O2          0.4197    -5.9249    87.1929 O.2        1          -0.9371
     17 C12         1.9908    -6.9265    92.7149 C.2        1           0.5628
     18 O3          2.4537    -7.9448    92.2393 O.2        1          -0.4844
     19 N3          2.6258    -6.3073    93.7296 N.am       1          -0.7387
     20 C13         3.8742    -6.8614    94.2594 C.3        1           0.1253
     21 C14         3.9982    -6.5111    95.7436 C.3        1          -0.0831
     22 C15         5.2824    -7.0812    96.2886 C.ar       1          -0.0808
     23 C16         5.3015    -8.3570    96.8202 C.ar       1          -0.1088
     24 C17         6.4794    -8.8800    97.3201 C.ar       1          -0.1106
     25 C18         7.6383    -8.1272    97.2882 C.ar       1          -0.1123
     26 C19         7.6194    -6.8516    96.7558 C.ar       1          -0.1112
     27 C20         6.4425    -6.3303    96.2519 C.ar       1          -0.1069
     28 C21         5.0600    -6.2695    93.4949 C.3        1           0.0784
     29 O4          5.0658    -4.8491    93.6502 O.3        1          -0.5428
     30 C22         4.9361    -6.6198    92.0107 C.3        1          -0.0491
     31 N4          6.0746    -6.0516    91.2766 N.4        1          -0.5042
     32 H1          6.0786    -5.0486    91.3863 H          1           0.4326
     33 H2          6.9343    -6.4334    91.6416 H          1           0.4307
     34 C23         5.9555    -6.3880    89.8517 C.3        1           0.0481
     35 C24         7.1235    -5.8051    89.0987 C.ar       1          -0.0862
     36 C25         8.4031    -5.9333    89.6040 C.ar       1          -0.1692
     37 C26         9.4802    -5.3974    88.9125 C.ar       1           0.1790
     38 O5         10.7388    -5.5242    89.4097 O.3        1          -0.3070
     39 C27        11.7996    -4.9482    88.6449 C.3        1           0.0212
     40 C28         9.2717    -4.7329    87.7136 C.ar       1          -0.2734
     41 C29         7.9869    -4.6055    87.2089 C.ar       1           0.1793
     42 O6          7.7793    -3.9552    86.0339 O.3        1          -0.3066
     43 C30         8.9308    -3.4275    85.3722 C.3        1           0.0212
     44 C31         6.9137    -5.1482    87.9013 C.ar       1          -0.1692
     45 H3         -2.5033    -2.9767    96.4052 H          1           0.0747
     46 H4         -2.8812    -2.2274    94.8355 H          1           0.0637
     47 H5         -3.7442    -3.6962    95.3512 H          1           0.0656
     48 H6         -0.7631    -3.5116    94.7218 H          1           0.0551
     49 H7         -1.6261    -4.9806    95.2374 H          1           0.0600
     50 H8         -2.9302    -3.9353    92.9607 H          1           0.4044
     51 H9          0.1869    -5.4047    94.0236 H          1           0.1196
     52 H10         1.0005    -7.2074    90.2200 H          1           0.1458
     53 H11        -2.5618    -4.9141    90.7873 H          1           0.1318
     54 H12        -1.5240    -8.3826    88.8272 H          1           0.0895
     55 H13        -2.9881    -7.3914    88.9828 H          1           0.1044
     56 H14        -1.2526    -7.8463    86.5420 H          1           0.1225
     57 H15        -3.0338    -7.9186    86.6960 H          1           0.1003
     58 H16        -2.0523    -5.7086    85.6228 H          1           0.1494
     59 H17        -3.1494    -5.4609    87.0352 H          1           0.1508
     60 H18         2.2565    -5.4945    94.1090 H          1           0.3911
     61 H19         3.8698    -7.9450    94.1410 H          1           0.1137
     62 H20         4.0027    -5.4275    95.8620 H          1           0.0852
     63 H21         3.1535    -6.9326    96.2883 H          1           0.0837
     64 H22         4.3960    -8.9453    96.8451 H          1           0.1090
     65 H23         6.4941    -9.8766    97.7361 H          1           0.1177
     66 H24         8.5584    -8.5355    97.6794 H          1           0.1193
     67 H25         8.5249    -6.2633    96.7311 H          1           0.1192
     68 H26         6.4285    -5.3351    95.8326 H          1           0.1141
     69 H27         5.9888    -6.6819    93.8892 H          1           0.1415
     70 H28         5.7924    -4.4062    93.1908 H          1           0.3846
     71 H29         4.9316    -7.7034    91.8923 H          1           0.1491
     72 H30         4.0072    -6.2076    91.6165 H          1           0.1362
     73 H31         5.9511    -7.4716    89.7333 H          1           0.1440
     74 H32         5.0268    -5.9757    89.4573 H          1           0.1424
     75 H33         8.5652    -6.4507    90.5380 H          1           0.1412
     76 H34        12.7485    -5.1205    89.1527 H          1           0.0615
     77 H35        11.8272    -5.4085    87.6573 H          1           0.0618
     78 H36        11.6324    -3.8761    88.5416 H          1           0.1125
     79 H37        10.1086    -4.3153    87.1737 H          1           0.1458
     80 H38         8.6255    -2.9348    84.4491 H          1           0.0619
     81 H39         9.4250    -2.7061    86.0228 H          1           0.0615
     82 H40         9.6201    -4.2393    85.1398 H          1           0.1127
     83 H41         5.9129    -5.0530    87.5062 H          1           0.1422
@<TRIPOS>BOND
     1    1    2 1
     2    1   45 1
     3    1   46 1
     4    1   47 1
     5    2    3 1
     6    2   48 1
     7    2   49 1
     8    3    4 1
     9    3   50 1
    10    4    9 ar
    11    4    5 ar
    12    5    6 ar
    13    5   51 1
    14    6    7 ar
    15    6   17 1
    16    7    8 ar
    17    7   52 1
    18    8    9 ar
    19    8   10 1
    20    9   53 1
    21   10   14 1
    22   10   11 1
    23   11   12 1
    24   11   54 1
    25   11   55 1
    26   12   13 1
    27   12   56 1
    28   12   57 1
    29   13   14 1
    30   13   58 1
    31   13   59 1
    32   14   15 2
    33   14   16 2
    34   17   18 2
    35   17   19 am
    36   19   20 1
    37   19   60 1
    38   20   21 1
    39   20   28 1
    40   20   61 1
    41   21   22 1
    42   21   62 1
    43   21   63 1
    44   22   27 ar
    45   22   23 ar
    46   23   24 ar
    47   23   64 1
    48   24   25 ar
    49   24   65 1
    50   25   26 ar
    51   25   66 1
    52   26   27 ar
    53   26   67 1
    54   27   68 1
    55   28   29 1
    56   28   30 1
    57   28   69 1
    58   29   70 1
    59   30   31 1
    60   30   71 1
    61   30   72 1
    62   31   32 1
    63   31   33 1
    64   31   34 1
    65   34   35 1
    66   34   73 1
    67   34   74 1
    68   35   44 ar
    69   35   36 ar
    70   36   37 ar
    71   36   75 1
    72   37   38 1
    73   37   40 ar
    74   38   39 1
    75   39   76 1
    76   39   77 1
    77   39   78 1
    78   40   41 ar
    79   40   79 1
    80   41   42 1
    81   41   44 ar
    82   42   43 1
    83   43   80 1
    84   43   81 1
    85   43   82 1
    86   44   83 1
##########                 Name:              T536791
##########          Protonation:                   32
##########               SMILES:   CN1CCN(CC1)c2nc([nH+]c(n2)NCc3ccccc3c4ccc(cc4)C(F)(F)F)NCCc5ccc(cc5)O
##########            Long Name:   ethyl)phenyl]phenyl]methylamino]-1,3,5-triazin-1-ium-2-yl]amino]ethyl]phenol
##########          FlexRecCode: 1
##########               Number:                  232
##########   Ligand Source File: /raidb/db2/rgc/tcams/tcams-0001630.db2.gz
##########           GlobalRank: 39
##########                 Rank:                    1
##########               Setnum:                  427
##########             Matchnum:                 1163
##########                Cloud:                    1
##########        Electrostatic:           -42.039009
##########        Van der Waals:           -30.149183
##########  Ligand Polar Desolv:             6.037903
########## Ligand Apolar Desolv:            -4.480575
##########      Internal Energy:             0.000000
##########      Receptor Energy: 0.0
########## Receptor Desolvation:             0.000000
########## Receptor Hydrophobic:             0.000000
##########         Total Energy: -70.63
##########        Ligand Charge:             1.000000
##########            Arbitrary:    +999.9990
##########     heavy atom count:   41
##########           pose count:    1
##########        Ligand Energy:             0.000000
# num electro vdwattr vdwrepu polsolv apolsol rdesolv rhydroe totalscore fullpol fullapo
#   1   -0.02   -0.10    0.00    0.02   -0.03    0.00    0.00      -0.14    0.26   -0.50
#   2    0.55   -0.12    0.00   -0.30    0.17    0.00    0.00       0.30   -6.17    3.39
#   3   -0.04   -0.12    0.00    0.04   -0.03    0.00    0.00      -0.15    0.52   -0.43
#   4   -0.10   -0.13    0.00    0.17   -0.04    0.00    0.00      -0.10    1.86   -0.49
#   5    1.05   -0.15    0.00   -0.51    0.11    0.00    0.00       0.51   -8.06    1.70
#   6   -0.14   -0.08    0.00    0.10   -0.03    0.00    0.00      -0.15    1.89   -0.49
#   7   -0.04   -0.10    0.00    0.03   -0.03    0.00    0.00      -0.14    0.52   -0.43
#   8   -4.34   -0.25    0.00    1.13   -0.48    0.00    0.00      -3.93   10.94   -4.68
#   9    4.05   -0.43    0.02   -2.17    0.33    0.00    0.00       1.80  -12.07    1.83
#  10  -13.27   -1.16    0.21    4.25   -1.30    0.00    0.00     -11.27   15.71   -4.81
#  11   14.75   -3.20    3.74   -5.31    0.58    0.00    0.00      10.56  -15.77    1.73
#  12   -0.45   -1.02    0.41    0.68   -0.11    0.00    0.00      -0.50    2.34   -0.38
#  13    0.63   -0.36    0.02   -0.36   -0.04    0.00    0.00      -0.11   -1.88   -0.23
#  14    1.79   -0.56    0.02   -0.30   -0.08    0.00    0.00       0.88   -1.39   -0.36
#  15    2.47   -1.12    0.11   -0.51   -0.16    0.00    0.00       0.78   -1.44   -0.46
#  16    3.95   -1.49    0.29   -0.76   -0.17    0.00    0.00       1.83   -2.01   -0.46
#  17   -2.07   -0.82    0.07    0.12   -0.09    0.00    0.00      -2.79    0.42   -0.31
#  18    6.62   -0.86    0.06   -1.41    0.43    0.00    0.00       4.84   -3.88    1.19
#  19    1.66   -0.39    0.01   -0.30   -0.07    0.00    0.00       0.91   -2.00   -0.46
#  20    1.11   -0.31    0.01   -0.18   -0.06    0.00    0.00       0.57   -1.44   -0.46
#  21   21.40   -1.96    0.98   -4.33    0.28    0.00    0.00      16.37  -15.08    0.99
#  22  -23.26   -0.13    0.02    4.26    0.11    0.00    0.00     -18.99   13.45    0.36
#  23  -15.70   -0.70    0.08    3.19   -1.00    0.00    0.00     -14.12   15.37   -4.81
#  24   16.87   -0.79    0.11   -3.29    0.37    0.00    0.00      13.26  -14.83    1.68
#  25   -1.59   -0.45    0.05    0.60   -0.07    0.00    0.00      -1.46    3.02   -0.33
#  26    1.61   -0.87    0.09   -0.44   -0.10    0.00    0.00       0.30   -1.63   -0.37
#  27    1.00   -1.05    0.13   -0.50   -0.14    0.00    0.00      -0.56   -1.57   -0.45
#  28    1.43   -1.41    0.15   -0.87   -0.20    0.00    0.00      -0.89   -2.06   -0.47
#  29    1.47   -2.63    1.06   -0.83   -0.22    0.00    0.00      -1.15   -1.73   -0.47
#  30    2.08   -2.55    1.05   -0.86   -0.22    0.00    0.00      -0.50   -1.80   -0.46
#  31    0.65   -1.05    0.06   -0.24   -0.14    0.00    0.00      -0.72   -0.65   -0.38
#  32    0.51   -1.02    0.06   -0.02   -0.12    0.00    0.00      -0.60   -0.05   -0.33
#  33    2.84   -1.75    0.33   -0.61   -0.19    0.00    0.00       0.63   -1.50   -0.46
#  34    1.44   -2.54    0.94   -0.44   -0.18    0.00    0.00      -0.79   -1.04   -0.44
#  35    4.20   -1.52    0.23   -0.96   -0.15    0.00    0.00       1.79   -2.37   -0.38
#  36    2.00   -1.64    0.53   -0.42   -0.17    0.00    0.00       0.30   -1.09   -0.44
#  37    3.04   -1.25    0.20   -0.73   -0.15    0.00    0.00       1.12   -1.79   -0.37
#  38  -11.73   -1.04    0.10    1.92   -0.03    0.00    0.00     -10.78    3.99   -0.07
#  39    3.93   -1.70    0.47   -0.78   -0.26    0.00    0.00       1.66   -1.46   -0.48
#  40    3.62   -0.68    0.08   -0.57   -0.18    0.00    0.00       2.25   -1.41   -0.45
#  41    4.19   -1.14    0.14   -0.66   -0.25    0.00    0.00       2.28   -1.18   -0.45
#  42    6.52   -0.32    0.01   -1.56    0.24    0.00    0.00       4.90  -11.76    1.83
#  43   -0.08   -0.03    0.00    0.02   -0.01    0.00    0.00      -0.09    0.67   -0.28
#  44   -0.09   -0.05    0.00    0.03   -0.01    0.00    0.00      -0.12    0.66   -0.28
#  45   -0.03   -0.03    0.00    0.01   -0.01    0.00    0.00      -0.05    0.21   -0.28
#  46   -0.06   -0.04    0.00    0.01   -0.01    0.00    0.00      -0.10    0.35   -0.28
#  47   -0.11   -0.05    0.00    0.06   -0.01    0.00    0.00      -0.12    1.18   -0.28
#  48   -0.08   -0.06    0.00    0.12   -0.02    0.00    0.00      -0.04    1.88   -0.24
#  49   -0.05   -0.04    0.00    0.05   -0.01    0.00    0.00      -0.06    1.01   -0.28
#  50   -0.18   -0.04    0.00    0.08   -0.01    0.00    0.00      -0.15    2.03   -0.24
#  51   -0.11   -0.01    0.00    0.02   -0.01    0.00    0.00      -0.10    1.05   -0.28
#  52   -0.11   -0.03    0.00    0.04   -0.01    0.00    0.00      -0.11    1.23   -0.28
#  53   -0.05   -0.04    0.00    0.02   -0.01    0.00    0.00      -0.09    0.36   -0.28
#  54  -23.27   -0.17    0.06    4.52    0.24    0.00    0.00     -18.62   10.92    0.58
#  55   -0.29   -0.27    0.08    0.68   -0.05    0.00    0.00       0.14    3.64   -0.27
#  56   -0.47   -0.47    0.27    0.93   -0.07    0.00    0.00       0.19    3.55   -0.27
#  57   -0.62   -0.05    0.00    0.12   -0.01    0.00    0.00      -0.56    2.32   -0.28
#  58   -0.37   -0.19    0.05    0.33   -0.04    0.00    0.00      -0.21    2.40   -0.28
#  59   -3.96   -0.32    0.04    1.00   -0.09    0.00    0.00      -3.32    3.10   -0.28
#  60   -4.51   -0.56    0.19    0.49   -0.12    0.00    0.00      -4.51    1.19   -0.28
#  61   -6.85   -0.03    0.00    1.82    0.46    0.00    0.00      -4.60    4.87    1.22
#  62   -1.00   -0.05    0.00    0.06   -0.01    0.00    0.00      -1.01    1.14   -0.28
#  63   -1.02   -0.03    0.00    0.11   -0.01    0.00    0.00      -0.95    3.00   -0.28
#  64  -16.71   -0.03    0.00    1.71    0.11    0.00    0.00     -14.91    9.45    0.58
#  65   -1.03   -0.10    0.01    0.33   -0.02    0.00    0.00      -0.81    3.51   -0.17
#  66   -0.30   -0.22    0.07    0.70   -0.04    0.00    0.00       0.21    4.62   -0.27
#  67   -1.18   -0.18    0.02    0.60   -0.04    0.00    0.00      -0.79    3.78   -0.28
#  68   -1.72   -0.26    0.02    0.52   -0.08    0.00    0.00      -1.51    1.91   -0.28
#  69   -2.18   -0.87    0.63    0.72   -0.15    0.00    0.00      -1.85    1.37   -0.28
#  70   -3.62   -1.24    2.61    0.69   -0.13    0.00    0.00      -1.70    1.44   -0.28
#  71   -4.82   -0.40    0.06    0.87   -0.11    0.00    0.00      -4.39    2.24   -0.28
#  72   -3.42   -1.24    2.24    0.63   -0.13    0.00    0.00      -1.92    1.35   -0.27
#  73   -5.16   -0.63    0.57    0.96   -0.10    0.00    0.00      -4.35    2.64   -0.27
#  74   -3.26   -0.29    0.06    1.47   -0.08    0.00    0.00      -2.11    4.41   -0.24

@<TRIPOS>MOLECULE
          T536791        32
   74    78     0     0     0



@<TRIPOS>ATOM
      1 C1         -1.2114    -9.8290    87.8614 C.3        1           0.0229
      2 N1          0.2081    -9.6967    88.2159 N.3        1          -0.5443
      3 C2          0.3701    -9.4410    89.6534 C.3        1           0.0376
      4 C3          1.8589    -9.4898    90.0127 C.3        1           0.1140
      5 N2          2.5833    -8.5623    89.1305 N.pl3      1          -0.5242
      6 C4          2.3649    -8.6681    87.6799 C.3        1           0.1138
      7 C5          0.8562    -8.6516    87.4123 C.3        1           0.0377
      8 C6          3.4453    -7.6181    89.6501 C.ar       1           0.6745
      9 N3          4.0912    -6.7882    88.8364 N.ar       1          -0.6176
     10 C7          4.9214    -5.8789    89.3367 C.ar       1           0.6935
     11 N4          5.5913    -5.0172    88.4921 N.pl3      1          -0.6633
     12 C8          5.7488    -5.3551    87.0752 C.3        1           0.0936
     13 C9          6.5186    -6.6710    86.9472 C.3        1          -0.0849
     14 C10         7.8772    -6.5220    87.5821 C.ar       1          -0.1110
     15 C11         8.5013    -5.2882    87.5951 C.ar       1          -0.0935
     16 C12         9.7467    -5.1489    88.1765 C.ar       1          -0.1430
     17 C13        10.3711    -6.2482    88.7478 C.ar       1           0.1187
     18 O1         11.5960    -6.1136    89.3207 O.3        1          -0.4971
     19 C14         9.7425    -7.4849    88.7339 C.ar       1          -0.1427
     20 C15         8.4951    -7.6179    88.1555 C.ar       1          -0.0932
     21 N5          5.1060    -5.7989    90.6509 N.ar       1          -0.6373
     22 H1          5.7120    -5.1353    91.0160 H          1           0.4340
     23 C16         4.4601    -6.6282    91.4645 C.ar       1           0.6936
     24 N6          4.6514    -6.5450    92.8287 N.pl3      1          -0.6558
     25 C17         3.9395    -7.4592    93.7253 C.3        1           0.1325
     26 C18         4.3214    -7.1618    95.1524 C.ar       1          -0.1145
     27 C19         5.4020    -7.8009    95.7266 C.ar       1          -0.0873
     28 C20         5.7536    -7.5289    97.0362 C.ar       1          -0.1091
     29 C21         5.0258    -6.6156    97.7778 C.ar       1          -0.0897
     30 C22         3.9440    -5.9707    97.2137 C.ar       1          -0.0985
     31 C23         3.5882    -6.2372    95.8930 C.ar       1          -0.0330
     32 C24         2.4291    -5.5430    95.2794 C.ar       1          -0.0215
     33 C25         2.6127    -4.3369    94.6062 C.ar       1          -0.1029
     34 C26         1.5312    -3.6957    94.0370 C.ar       1          -0.0594
     35 C27         0.2668    -4.2482    94.1339 C.ar       1          -0.1752
     36 C28         0.0788    -5.4449    94.8014 C.ar       1          -0.0689
     37 C29         1.1541    -6.0976    95.3694 C.ar       1          -0.1206
     38 C30        -0.9102    -3.5434    93.5104 C.3        1           0.5054
     39 F1         -0.4758    -2.3632    92.8973 F          1          -0.1771
     40 F2         -1.4992    -4.3765    92.5532 F          1          -0.1737
     41 F3         -1.8483    -3.2358    94.5015 F          1          -0.1713
     42 N7          3.6258    -7.5346    90.9642 N.ar       1          -0.6164
     43 H2         -1.6669   -10.6092    88.4711 H          1           0.0771
     44 H3         -1.7208    -8.8825    88.0426 H          1           0.0765
     45 H4         -1.2997   -10.0933    86.8077 H          1           0.0304
     46 H5         -0.0304    -8.4564    89.8950 H          1           0.0433
     47 H6         -0.1662   -10.2015    90.2209 H          1           0.1023
     48 H7          1.9949    -9.1886    91.0515 H          1           0.1115
     49 H8          2.2372   -10.5020    89.8696 H          1           0.0980
     50 H9          2.8353    -7.8237    87.1762 H          1           0.1119
     51 H10         2.7917    -9.6014    87.3123 H          1           0.0982
     52 H11         0.6722    -8.8397    86.3545 H          1           0.1026
     53 H12         0.4489    -7.6781    87.6851 H          1           0.0434
     54 H13         5.9578    -4.1878    88.8365 H          1           0.4443
     55 H14         4.7661    -5.4627    86.6161 H          1           0.0872
     56 H15         6.3001    -4.5610    86.5715 H          1           0.0872
     57 H16         5.9673    -7.4650    87.4511 H          1           0.0936
     58 H17         6.6356    -6.9224    85.8931 H          1           0.0933
     59 H18         8.0148    -4.4327    87.1502 H          1           0.1285
     60 H19        10.2341    -4.1851    88.1858 H          1           0.1337
     61 H20        11.9519    -5.2152    89.2817 H          1           0.3963
     62 H21        10.2267    -8.3422    89.1778 H          1           0.1338
     63 H22         8.0036    -8.5796    88.1480 H          1           0.1288
     64 H23         5.2573    -5.8813    93.1938 H          1           0.4435
     65 H24         2.8649    -7.3259    93.6015 H          1           0.0951
     66 H25         4.2083    -8.4875    93.4840 H          1           0.0952
     67 H26         5.9736    -8.5147    95.1521 H          1           0.1319
     68 H27         6.5993    -8.0318    97.4816 H          1           0.1352
     69 H28         5.3045    -6.4073    98.8002 H          1           0.1364
     70 H29         3.3763    -5.2580    97.7937 H          1           0.1346
     71 H30         3.5994    -3.9046    94.5303 H          1           0.1417
     72 H31         1.6723    -2.7607    93.5152 H          1           0.1436
     73 H32        -0.9107    -5.8717    94.8743 H          1           0.1395
     74 H33         1.0068    -7.0343    95.8866 H          1           0.1361
@<TRIPOS>BOND
     1    1    2 1
     2    1   43 1
     3    1   44 1
     4    1   45 1
     5    2    7 1
     6    2    3 1
     7    3    4 1
     8    3   46 1
     9    3   47 1
    10    4    5 1
    11    4   48 1
    12    4   49 1
    13    5    6 1
    14    5    8 1
    15    6    7 1
    16    6   50 1
    17    6   51 1
    18    7   52 1
    19    7   53 1
    20    8   42 ar
    21    8    9 ar
    22    9   10 ar
    23   10   11 1
    24   10   21 ar
    25   11   12 1
    26   11   54 1
    27   12   13 1
    28   12   55 1
    29   12   56 1
    30   13   14 1
    31   13   57 1
    32   13   58 1
    33   14   20 ar
    34   14   15 ar
    35   15   16 ar
    36   15   59 1
    37   16   17 ar
    38   16   60 1
    39   17   18 1
    40   17   19 ar
    41   18   61 1
    42   19   20 ar
    43   19   62 1
    44   20   63 1
    45   21   22 1
    46   21   23 ar
    47   23   24 1
    48   23   42 ar
    49   24   25 1
    50   24   64 1
    51   25   26 1
    52   25   65 1
    53   25   66 1
    54   26   31 ar
    55   26   27 ar
    56   27   28 ar
    57   27   67 1
    58   28   29 ar
    59   28   68 1
    60   29   30 ar
    61   29   69 1
    62   30   31 ar
    63   30   70 1
    64   31   32 1
    65   32   37 ar
    66   32   33 ar
    67   33   34 ar
    68   33   71 1
    69   34   35 ar
    70   34   72 1
    71   35   36 ar
    72   35   38 1
    73   36   37 ar
    74   36   73 1
    75   37   74 1
    76   38   39 1
    77   38   40 1
    78   38   41 1
##########                 Name:              T525784
##########          Protonation:                   25
##########               SMILES:   C[NH+](CCCN(C)c1cc(cc[nH+]1)NC(=O)c2ccc(cc2)F)Cc3cccc(c3)O
##########            Long Name:   in-1-ium-2-yl]-methyl-amino]propyl-[(3-hydroxyphenyl)methyl]-methyl-ammonium
##########          FlexRecCode: 1
##########               Number:                  360
##########   Ligand Source File: /raidb/db2/rgc/tcams/tcams-0000111.db2.gz
##########           GlobalRank: 40
##########                 Rank:                    1
##########               Setnum:                  134
##########             Matchnum:                 1526
##########                Cloud:                    1
##########        Electrostatic:           -47.333096
##########        Van der Waals:           -30.389549
##########  Ligand Polar Desolv:             9.833655
########## Ligand Apolar Desolv:            -2.706980
##########      Internal Energy:             0.000000
##########      Receptor Energy: 0.0
########## Receptor Desolvation:             0.000000
########## Receptor Hydrophobic:             0.000000
##########         Total Energy: -70.6
##########        Ligand Charge:             2.000000
##########            Arbitrary:    +999.9990
##########     heavy atom count:   31
##########           pose count:    1
##########        Ligand Energy:             0.000000
# num electro vdwattr vdwrepu polsolv apolsol rdesolv rhydroe totalscore fullpol fullapo
#   1   -0.98   -0.31    0.01    0.40   -0.10    0.00    0.00      -0.98    2.22   -0.54
#   2   12.45   -0.60    0.02   -5.16    0.37    0.00    0.00       7.09  -23.47    1.69
#   3   -3.26   -0.90    0.38    0.81   -0.10    0.00    0.00      -3.08    3.23   -0.39
#   4    3.56   -0.35    0.03   -1.44   -0.04    0.00    0.00       1.76   -8.50   -0.22
#   5    0.25   -0.54    0.09   -0.05   -0.07    0.00    0.00      -0.32   -0.23   -0.35
#   6    4.93   -0.22    0.01   -1.81    0.04    0.00    0.00       2.95  -16.86    0.33
#   7   -3.52    0.00    0.00    0.76    0.02    0.00    0.00      -2.74   22.01    0.55
#   8    0.61   -0.15    0.00   -0.30   -0.04    0.00    0.00       0.12   -3.16   -0.44
#   9   -0.56   -0.21    0.00    0.38   -0.05    0.00    0.00      -0.43    2.87   -0.36
#  10    1.03   -0.48    0.02   -0.51   -0.06    0.00    0.00       0.00   -2.86   -0.33
#  11    0.29   -0.32    0.01   -0.36   -0.05    0.00    0.00      -0.43   -2.85   -0.36
#  12    0.21   -0.57    0.05   -0.63   -0.09    0.00    0.00      -1.02   -3.42   -0.47
#  13    0.28   -1.83    1.01   -1.30   -0.15    0.00    0.00      -1.99   -4.09   -0.46
#  14   -0.48   -2.22    1.24    0.25   -0.11    0.00    0.00      -1.32    0.70   -0.31
#  15    2.20   -3.12    1.93   -4.89    0.57    0.00    0.00      -3.32  -10.28    1.19
#  16    0.69   -1.19    0.25   -0.96   -0.13    0.00    0.00      -1.34   -3.33   -0.45
#  17   -9.04   -0.70    0.03    4.79   -0.52    0.00    0.00      -5.45   18.65   -2.01
#  18    3.39   -0.86    0.08   -2.27   -0.12    0.00    0.00       0.23   -8.37   -0.43
#  19   -4.14   -1.24    0.12    2.89   -0.25    0.00    0.00      -2.61    7.76   -0.67
#  20    6.69   -1.47    0.17   -7.47    0.68    0.00    0.00      -1.40  -18.01    1.64
#  21   -2.81   -1.71    0.39    4.60   -0.23    0.00    0.00       0.23   12.74   -0.64
#  22   -0.11   -2.66    2.68   -3.38    0.11    0.00    0.00      -3.37  -10.27    0.33
#  23    1.09   -1.63    0.31   -1.20   -0.16    0.00    0.00      -1.59   -3.10   -0.41
#  24    0.57   -1.52    0.24   -0.14   -0.19    0.00    0.00      -1.04   -0.32   -0.44
#  25    1.73   -1.70    0.30   -1.56   -0.25    0.00    0.00      -1.49   -2.96   -0.47
#  26   -1.15   -1.91    0.26    0.33   -0.20    0.00    0.00      -2.67    0.57   -0.34
#  27    0.05   -2.60    1.67   -1.07   -0.30    0.00    0.00      -2.26   -1.71   -0.48
#  28    1.19   -1.80    0.22   -1.44   -0.26    0.00    0.00      -2.09   -2.56   -0.47
#  29    0.05   -2.02    0.45   -0.38   -0.21    0.00    0.00      -2.10   -0.84   -0.46
#  30    2.95   -2.08    0.46   -3.66   -0.19    0.00    0.00      -2.51   -8.09   -0.41
#  31   -3.73   -2.06    0.54    4.16   -0.46    0.00    0.00      -1.55    8.85   -0.97
#  32   12.14   -1.01    0.05   -7.41    0.36    0.00    0.00       4.13  -19.97    0.96
#  33  -11.00   -0.02    0.00    4.65    0.09    0.00    0.00      -6.27   22.39    0.44
#  34   -1.16   -0.09    0.00    0.15   -0.02    0.00    0.00      -1.13    1.77   -0.28
#  35   -1.34   -0.12    0.01    0.42   -0.03    0.00    0.00      -1.06    3.53   -0.22
#  36   -0.76   -0.06    0.00    0.30   -0.02    0.00    0.00      -0.54    4.97   -0.28
#  37   -3.68   -0.52    0.28    1.75   -0.06    0.00    0.00      -2.21    6.33   -0.21
#  38   -5.32   -0.57    0.85    1.18   -0.06    0.00    0.00      -3.92    5.56   -0.28
#  39   -1.47   -0.07    0.00    0.34   -0.01    0.00    0.00      -1.22    4.97   -0.21
#  40   -1.12   -0.06    0.00    0.32   -0.02    0.00    0.00      -0.88    5.87   -0.28
#  41   -4.04   -0.27    0.06    2.01   -0.06    0.00    0.00      -2.30    9.86   -0.28
#  42   -4.40   -0.27    0.08    1.65   -0.06    0.00    0.00      -2.99    7.83   -0.28
#  43   -0.79   -0.02    0.00    0.18   -0.01    0.00    0.00      -0.64    6.38   -0.28
#  44   -1.55   -0.07    0.00    0.47   -0.01    0.00    0.00      -1.16    6.94   -0.22
#  45   -1.16   -0.05    0.00    0.12   -0.01    0.00    0.00      -1.09    2.99   -0.21
#  46   -2.61   -0.09    0.00    0.84   -0.03    0.00    0.00      -1.88    8.77   -0.27
#  47   -1.11   -0.04    0.00    0.31   -0.01    0.00    0.00      -0.85    7.75   -0.28
#  48   -0.38   -0.03    0.00    0.22   -0.01    0.00    0.00      -0.20    6.61   -0.28
#  49   -0.25   -0.07    0.00    0.15   -0.02    0.00    0.00      -0.20    2.12   -0.28
#  50   -0.26   -0.69    0.61    0.19   -0.09    0.00    0.00      -0.23    0.61   -0.28
#  51   -6.98   -0.06    0.00    3.90    0.50    0.00    0.00      -2.63    9.45    1.22
#  52   -2.48   -0.25    0.04    1.47   -0.06    0.00    0.00      -1.28    6.55   -0.28
#  53   -2.15   -0.14    0.01    0.86   -0.02    0.00    0.00      -1.45    7.28   -0.21
#  54   -5.46   -0.02    0.00    4.30    0.14    0.00    0.00      -1.04   14.08    0.46
#  55   -2.01   -0.29    0.03    2.05   -0.07    0.00    0.00      -0.29    6.86   -0.22
#  56   -1.90   -0.50    0.36    1.44   -0.12    0.00    0.00      -0.73    3.26   -0.28
#  57   -1.61   -0.47    0.09    0.79   -0.15    0.00    0.00      -1.35    1.52   -0.28
#  58    0.17   -0.72    0.37    0.84   -0.10    0.00    0.00       0.55    2.15   -0.26
#  59   -3.26   -0.64    0.19    1.54   -0.11    0.00    0.00      -2.28    3.09   -0.22
#  60   -5.79   -0.80    0.62    5.38   -0.13    0.00    0.00      -0.73   11.34   -0.28

@<TRIPOS>MOLECULE
          T525784        25
   60    62     0     0     0



@<TRIPOS>ATOM
      1 C1          2.2718    -6.6742    92.7720 C.3        1           0.0725
      2 N1          3.6177    -6.3850    93.2734 N.pl3      1          -0.5962
      3 C2          4.6866    -6.0267    92.3380 C.3        1           0.1005
      4 C3          4.9003    -7.1710    91.3451 C.3        1          -0.1803
      5 C4          6.0167    -6.7968    90.3680 C.3        1          -0.0103
      6 N2          6.2217    -7.8954    89.4148 N.4        1          -0.3843
      7 H1          5.3279    -8.2794    89.1468 H          1           0.4234
      8 C5          7.0364    -8.9437    90.0435 C.3        1          -0.0596
      9 C6          6.9133    -7.3867    88.2227 C.3        1           0.0457
     10 C7          5.9200    -6.7016    87.3198 C.ar       1          -0.1508
     11 C8          4.6970    -7.2937    87.0628 C.ar       1          -0.1069
     12 C9          3.7836    -6.6677    86.2353 C.ar       1          -0.0924
     13 C10         4.0907    -5.4481    85.6630 C.ar       1          -0.1089
     14 C11         5.3166    -4.8522    85.9192 C.ar       1           0.1209
     15 O1          5.6211    -3.6528    85.3574 O.3        1          -0.4906
     16 C12         6.2297    -5.4800    86.7543 C.ar       1          -0.1256
     17 C13         3.8803    -6.4505    94.6371 C.ar       1           0.4559
     18 C14         4.8416    -7.3340    95.1103 C.ar       1          -0.2384
     19 C15         5.0935    -7.3880    96.4768 C.ar       1           0.3187
     20 N3          6.0512    -8.2610    96.9932 N.am       1          -0.6659
     21 C16         6.3064    -9.4275    96.3683 C.2        1           0.5775
     22 O2          5.7021    -9.7189    95.3545 O.2        1          -0.4892
     23 C17         7.3204   -10.3517    96.9150 C.ar       1          -0.1750
     24 C18         8.3795    -9.8573    97.6796 C.ar       1          -0.0507
     25 C19         9.3227   -10.7243    98.1878 C.ar       1          -0.1598
     26 C20         9.2218   -12.0851    97.9409 C.ar       1           0.1541
     27 F1         10.1493   -12.9305    98.4411 F          1          -0.1195
     28 C21         8.1722   -12.5813    97.1829 C.ar       1          -0.1583
     29 C22         7.2204   -11.7238    96.6742 C.ar       1          -0.0137
     30 C23         4.3647    -6.5461    97.3195 C.ar       1          -0.1712
     31 C24         3.4272    -5.6962    96.7746 C.ar       1           0.1628
     32 N4          3.2149    -5.6654    95.4716 N.ar       1          -0.5202
     33 H2          2.5510    -5.0541    95.1161 H          1           0.4337
     34 H3          1.6172    -6.9191    93.6084 H          1           0.0867
     35 H4          1.8829    -5.7999    92.2499 H          1           0.0921
     36 H5          2.3140    -7.5190    92.0843 H          1           0.0970
     37 H6          4.4074    -5.1230    91.7962 H          1           0.0897
     38 H7          5.6088    -5.8485    92.8909 H          1           0.1244
     39 H8          5.1795    -8.0747    91.8868 H          1           0.1075
     40 H9          3.9779    -7.3492    90.7920 H          1           0.0883
     41 H10         5.7375    -5.8930    89.8263 H          1           0.1357
     42 H11         6.9389    -6.6187    90.9211 H          1           0.1413
     43 H12         7.1886    -9.7588    89.3361 H          1           0.1278
     44 H13         8.0019    -8.5288    90.3330 H          1           0.1218
     45 H14         6.5233    -9.3211    90.9279 H          1           0.1304
     46 H15         7.6813    -6.6747    88.5244 H          1           0.1392
     47 H16         7.3766    -8.2169    87.6896 H          1           0.1414
     48 H17         4.4553    -8.2471    87.5090 H          1           0.1352
     49 H18         2.8292    -7.1322    86.0359 H          1           0.1442
     50 H19         3.3768    -4.9598    85.0163 H          1           0.1453
     51 H20         6.4970    -3.3183    85.5948 H          1           0.4016
     52 H21         7.1832    -5.0160    86.9588 H          1           0.1362
     53 H22         5.3850    -7.9701    94.4273 H          1           0.1833
     54 H23         6.5333    -8.0284    97.8022 H          1           0.4306
     55 H24         8.4594    -8.7976    97.8719 H          1           0.1347
     56 H25        10.1421   -10.3432    98.7792 H          1           0.1519
     57 H26         8.0981   -13.6420    96.9939 H          1           0.1547
     58 H27         6.4011   -12.1118    96.0871 H          1           0.1527
     59 H28         4.5338    -6.5614    98.3861 H          1           0.1949
     60 H29         2.8608    -5.0431    97.4220 H          1           0.2135
@<TRIPOS>BOND
     1    1    2 1
     2    1   34 1
     3    1   35 1
     4    1   36 1
     5    2    3 1
     6    2   17 1
     7    3    4 1
     8    3   37 1
     9    3   38 1
    10    4    5 1
    11    4   39 1
    12    4   40 1
    13    5    6 1
    14    5   41 1
    15    5   42 1
    16    6    7 1
    17    6    8 1
    18    6    9 1
    19    8   43 1
    20    8   44 1
    21    8   45 1
    22    9   10 1
    23    9   46 1
    24    9   47 1
    25   10   16 ar
    26   10   11 ar
    27   11   12 ar
    28   11   48 1
    29   12   13 ar
    30   12   49 1
    31   13   14 ar
    32   13   50 1
    33   14   15 1
    34   14   16 ar
    35   15   51 1
    36   16   52 1
    37   17   32 ar
    38   17   18 ar
    39   18   19 ar
    40   18   53 1
    41   19   20 1
    42   19   30 ar
    43   20   21 am
    44   20   54 1
    45   21   22 2
    46   21   23 1
    47   23   29 ar
    48   23   24 ar
    49   24   25 ar
    50   24   55 1
    51   25   26 ar
    52   25   56 1
    53   26   27 1
    54   26   28 ar
    55   28   29 ar
    56   28   57 1
    57   29   58 1
    58   30   31 ar
    59   30   59 1
    60   31   32 ar
    61   31   60 1
    62   32   33 1
##########                 Name:              T540066
##########          Protonation:                   50
##########               SMILES:   CCC[C@H](C[NH2+]Cc1ccc(c(c1)C(F)(F)F)Cl)C/[NH+]=c\2/[nH]c3ccncc3[nH]2
##########            Long Name:   )-2-(1,3-dihydroimidazo[4,5-c]pyridin-2-ylideneammoniomethyl)pentyl]ammonium
##########          FlexRecCode: 1
##########               Number:                   80
##########   Ligand Source File: /raidb/db2/rgc/tcams/tcams-0001969.db2.gz
##########           GlobalRank: 41
##########                 Rank:                    1
##########               Setnum:                   79
##########             Matchnum:                 2014
##########                Cloud:                    1
##########        Electrostatic:           -56.597473
##########        Van der Waals:           -30.207474
##########  Ligand Polar Desolv:            20.056591
########## Ligand Apolar Desolv:            -3.831940
##########      Internal Energy:             0.000000
##########      Receptor Energy: 0.0
########## Receptor Desolvation:             0.000000
########## Receptor Hydrophobic:             0.000000
##########         Total Energy: -70.58
##########        Ligand Charge:             2.000000
##########            Arbitrary:    +999.9990
##########     heavy atom count:   29
##########           pose count:    1
##########        Ligand Energy:             0.000000
# num electro vdwattr vdwrepu polsolv apolsol rdesolv rhydroe totalscore fullpol fullapo
#   1    2.41   -1.70    0.49   -2.88   -0.09    0.00    0.00      -1.78   -5.93   -0.19
#   2    2.84   -1.06    0.15   -2.42   -0.10    0.00    0.00      -0.58   -5.48   -0.22
#   3    2.20   -0.59    0.04   -2.18   -0.06    0.00    0.00      -0.59   -7.03   -0.19
#   4    2.69   -0.45    0.01   -1.36   -0.04    0.00    0.00       0.86   -5.21   -0.14
#   5    0.34   -0.83    0.10   -0.15   -0.12    0.00    0.00      -0.66   -0.41   -0.34
#   6   18.70   -1.44    1.08   -7.67    0.21    0.00    0.00      10.88  -26.70    0.73
#   7  -25.02   -0.16    0.08    6.84    0.13    0.00    0.00     -18.13   23.85    0.46
#   8  -12.18   -0.01    0.00    3.59    0.08    0.00    0.00      -8.52   24.90    0.57
#   9   -1.26   -0.54    0.09    0.75   -0.09    0.00    0.00      -1.04    3.53   -0.42
#  10    3.98   -0.69    0.09   -0.67   -0.08    0.00    0.00       2.64   -3.28   -0.37
#  11    0.58   -0.51    0.03   -0.09   -0.09    0.00    0.00      -0.07   -0.44   -0.45
#  12    1.09   -0.53    0.06   -0.68   -0.08    0.00    0.00      -0.15   -3.94   -0.46
#  13   -0.47   -0.56    0.08   -0.18   -0.05    0.00    0.00      -1.17   -1.03   -0.30
#  14    0.00   -0.83    0.18   -0.31   -0.11    0.00    0.00      -1.08   -2.45   -0.91
#  15    3.36   -0.66    0.06   -1.09   -0.08    0.00    0.00       1.60   -5.13   -0.37
#  16    0.92   -1.17    0.37   -0.21   -0.10    0.00    0.00      -0.19   -0.86   -0.42
#  17   -9.70   -0.43    0.03    1.63   -0.01    0.00    0.00      -8.47    7.82   -0.06
#  18    1.84   -0.18    0.00   -0.46   -0.06    0.00    0.00       1.14   -3.20   -0.44
#  19    2.81   -0.25    0.01   -0.53   -0.09    0.00    0.00       1.95   -2.76   -0.45
#  20    4.39   -1.24    0.80   -1.00   -0.16    0.00    0.00       2.80   -2.86   -0.45
#  21   -2.33   -0.71    0.05    0.94   -0.13    0.00    0.00      -2.18    2.61   -0.36
#  22   13.72   -1.09    0.08   -9.35    0.53    0.00    0.00       3.89  -27.14    1.53
#  23   -7.24   -0.01    0.00    3.93    0.10    0.00    0.00      -3.22   21.83    0.53
#  24  -15.63   -1.51    0.18   12.24   -2.11    0.00    0.00      -6.83   28.73   -4.95
#  25   12.41   -1.50    0.13  -10.24    0.57    0.00    0.00       1.37  -21.54    1.20
#  26   -3.06   -1.82    0.17    2.43   -0.48    0.00    0.00      -2.77    3.92   -0.78
#  27    3.23   -2.46    0.42   -2.51   -0.32    0.00    0.00      -1.64   -3.81   -0.48
#  28   -3.45   -4.58    2.98    0.74   -0.68    0.00    0.00      -4.99    1.06   -0.98
#  29   10.52   -5.86    4.47   -8.11    1.45    0.00    0.00       2.47  -11.45    2.04
#  30   -4.07   -4.97    2.87    1.99   -0.66    0.00    0.00      -4.85    2.97   -0.98
#  31   -0.38   -3.07    1.10    0.96   -0.46    0.00    0.00      -1.86    1.62   -0.78
#  32   15.24   -3.15    1.67  -10.74    0.58    0.00    0.00       3.61  -21.56    1.16
#  33   -1.10   -0.83    0.41    0.19   -0.15    0.00    0.00      -1.46    0.37   -0.28
#  34   -0.63   -1.01    1.28    0.64   -0.13    0.00    0.00       0.15    1.34   -0.28
#  35   -0.83   -0.32    0.04   -0.06   -0.10    0.00    0.00      -1.27   -0.19   -0.28
#  36   -1.75   -0.41    0.07    1.41   -0.09    0.00    0.00      -0.75    3.47   -0.22
#  37   -1.66   -0.37    0.08    1.57   -0.06    0.00    0.00      -0.44    5.82   -0.22
#  38   -0.90   -0.17    0.02    0.69   -0.03    0.00    0.00      -0.39    4.83   -0.23
#  39   -0.90   -0.25    0.04    0.60   -0.06    0.00    0.00      -0.57    2.56   -0.24
#  40   -1.85   -0.09    0.00    0.68   -0.02    0.00    0.00      -1.28    8.65   -0.28
#  41   -5.08   -0.40    0.11    3.53   -0.09    0.00    0.00      -1.92   11.35   -0.28
#  42   -5.06   -0.30    0.02    3.09   -0.07    0.00    0.00      -2.33    9.21   -0.22
#  43   -2.22   -0.08    0.00    0.74   -0.02    0.00    0.00      -1.58   10.10   -0.28
#  44   -4.26   -0.20    0.03    1.91   -0.05    0.00    0.00      -2.58   10.58   -0.28
#  45   -0.96   -0.15    0.02    1.28   -0.04    0.00    0.00       0.15    9.98   -0.28
#  46   -1.15   -0.10    0.01    0.27   -0.02    0.00    0.00      -1.00    3.07   -0.28
#  47   -6.07   -0.54    0.39    1.96   -0.06    0.00    0.00      -4.32    7.79   -0.25
#  48   -3.06   -0.24    0.04    1.54   -0.05    0.00    0.00      -1.79    6.53   -0.23
#  49   -2.89   -0.41    0.12    2.80   -0.09    0.00    0.00      -0.47    8.54   -0.28
#  50   -7.71   -0.03    0.00    5.76    0.18    0.00    0.00      -1.80   18.64    0.59
#  51   -3.92   -0.94    0.92    2.69   -0.15    0.00    0.00      -1.40    5.02   -0.28
#  52   -4.56   -1.19    0.95    2.03   -0.19    0.00    0.00      -2.95    3.06   -0.28
#  53   -4.59   -1.58    1.57    4.02   -0.20    0.00    0.00      -0.77    5.69   -0.28
#  54  -13.92   -0.07    0.00    9.50    0.26    0.00    0.00      -4.23   20.95    0.57

@<TRIPOS>MOLECULE
          T540066        50
   54    56     0     0     0



@<TRIPOS>ATOM
      1 C1          4.1709    -6.9258    97.7323 C.3        1          -0.1635
      2 C2          3.6646    -6.0187    96.6091 C.3        1          -0.1355
      3 C3          3.2676    -6.8730    95.4034 C.3        1          -0.1471
      4 C4          2.7612    -5.9658    94.2802 C.3        1          -0.1289
      5 C5          3.8686    -4.9918    93.8727 C.3        1          -0.0104
      6 N1          5.0369    -5.7479    93.4023 N.4        1          -0.5110
      7 H1          5.7672    -5.1057    93.1335 H          1           0.4293
      8 H2          5.3708    -6.3461    94.1431 H          1           0.4317
      9 C6          4.6558    -6.5682    92.2448 C.3        1           0.0489
     10 C7          5.8543    -7.3439    91.7622 C.ar       1          -0.1757
     11 C8          6.1127    -8.6034    92.2704 C.ar       1          -0.0465
     12 C9          7.2118    -9.3150    91.8285 C.ar       1          -0.1045
     13 C10         8.0536    -8.7668    90.8769 C.ar       1           0.0375
     14 Cl1         9.4342    -9.6604    90.3209 Cl         1          -0.0001
     15 C11         7.7944    -7.5067    90.3685 C.ar       1          -0.1720
     16 C12         6.6916    -6.7981    90.8075 C.ar       1          -0.0328
     17 C13         8.7107    -6.9090    89.3320 C.3        1           0.5065
     18 F1          9.7429    -7.8093    89.0474 F          1          -0.1723
     19 F2          7.9858    -6.6463    88.1646 F          1          -0.1591
     20 F3          9.2539    -5.7166    89.8220 F          1          -0.1621
     21 C14         1.5443    -5.1784    94.7701 C.3        1           0.0960
     22 N2          0.7807    -4.6927    93.6180 N.pl3      1          -0.6476
     23 H3          1.0816    -4.8919    92.7178 H          1           0.4449
     24 C15        -0.3053    -3.9911    93.8033 C.cat      1           0.6721
     25 N3         -1.1091    -3.4850    92.8115 N.pl3      1          -0.5766
     26 C16        -2.1585    -2.8031    93.4095 C.ar       1           0.1278
     27 C17        -3.2554    -2.1026    92.9215 C.ar       1          -0.1364
     28 C18        -4.1326    -1.5280    93.8198 C.ar       1           0.1455
     29 N4         -3.9416    -1.6362    95.1216 N.ar       1          -0.4403
     30 C19        -2.9140    -2.2919    95.6280 C.ar       1           0.1660
     31 C20        -1.9882    -2.8969    94.7949 C.ar       1           0.0156
     32 N5         -0.8344    -3.6435    95.0211 N.pl3      1          -0.5676
     33 H4          4.4538    -6.3172    98.5912 H          1           0.0606
     34 H5          3.3820    -7.6195    98.0225 H          1           0.0631
     35 H6          5.0379    -7.4867    97.3832 H          1           0.0693
     36 H7          2.7975    -5.4577    96.9580 H          1           0.0708
     37 H8          4.4534    -5.3248    96.3188 H          1           0.0656
     38 H9          4.1345    -7.4338    95.0544 H          1           0.0823
     39 H10         2.4787    -7.5668    95.6937 H          1           0.0904
     40 H11         2.4784    -6.5744    93.4213 H          1           0.1184
     41 H12         3.5077    -4.3456    93.0726 H          1           0.1463
     42 H13         4.1514    -4.3833    94.7316 H          1           0.1470
     43 H14         3.8668    -7.2620    92.5350 H          1           0.1486
     44 H15         4.2949    -5.9220    91.4445 H          1           0.1489
     45 H16         5.4555    -9.0312    93.0130 H          1           0.1529
     46 H17         7.4138   -10.2987    92.2261 H          1           0.1631
     47 H18         6.4869    -5.8159    90.4077 H          1           0.1572
     48 H19         0.9126    -5.8265    95.3776 H          1           0.1115
     49 H20         1.8772    -4.3307    95.3689 H          1           0.1110
     50 H21        -0.9675    -3.5869    91.8573 H          1           0.4617
     51 H22        -3.4188    -2.0090    91.8579 H          1           0.1664
     52 H23        -4.9880    -0.9813    93.4516 H          1           0.1922
     53 H24        -2.7942    -2.3563    96.6994 H          1           0.1830
     54 H25        -0.4671    -3.8754    95.8885 H          1           0.4580
@<TRIPOS>BOND
     1    1    2 1
     2    1   33 1
     3    1   34 1
     4    1   35 1
     5    2    3 1
     6    2   36 1
     7    2   37 1
     8    3    4 1
     9    3   38 1
    10    3   39 1
    11    4    5 1
    12    4   21 1
    13    4   40 1
    14    5    6 1
    15    5   41 1
    16    5   42 1
    17    6    7 1
    18    6    8 1
    19    6    9 1
    20    9   10 1
    21    9   43 1
    22    9   44 1
    23   10   16 ar
    24   10   11 ar
    25   11   12 ar
    26   11   45 1
    27   12   13 ar
    28   12   46 1
    29   13   14 1
    30   13   15 ar
    31   15   16 ar
    32   15   17 1
    33   16   47 1
    34   17   18 1
    35   17   19 1
    36   17   20 1
    37   21   22 1
    38   21   48 1
    39   21   49 1
    40   22   23 1
    41   22   24 2
    42   24   32 1
    43   24   25 1
    44   25   26 1
    45   25   50 1
    46   26   31 ar
    47   26   27 ar
    48   27   28 ar
    49   27   51 1
    50   28   29 ar
    51   28   52 1
    52   29   30 ar
    53   30   31 ar
    54   30   53 1
    55   31   32 1
    56   32   54 1
##########                 Name:              T535921
##########          Protonation:                   18
##########               SMILES:   Cc1ccc(cc1)CNC(=O)[C@H](CCC[NH3+])Nc2cc([nH+]/c(=N\c3ccccc3)/[nH]2)C
##########            Long Name:   o-1H-pyrimidin-3-ium-6-yl]amino]-5-oxo-5-(p-tolylmethylamino)pentyl]ammonium
##########          FlexRecCode: 1
##########               Number:                  178
##########   Ligand Source File: /raidb/db2/rgc/tcams/tcams-0001431.db2.gz
##########           GlobalRank: 42
##########                 Rank:                    1
##########               Setnum:                  195
##########             Matchnum:                 5030
##########                Cloud:                    1
##########        Electrostatic:           -57.729385
##########        Van der Waals:           -24.478258
##########  Ligand Polar Desolv:            15.513960
########## Ligand Apolar Desolv:            -3.872703
##########      Internal Energy:             0.000000
##########      Receptor Energy: 0.0
########## Receptor Desolvation:             0.000000
########## Receptor Hydrophobic:             0.000000
##########         Total Energy: -70.57
##########        Ligand Charge:             2.000000
##########            Arbitrary:    +999.9990
##########     heavy atom count:   31
##########           pose count:    1
##########        Ligand Energy:             0.000000
# num electro vdwattr vdwrepu polsolv apolsol rdesolv rhydroe totalscore fullpol fullapo
#   1    0.55   -1.35    0.40   -0.71   -0.08    0.00    0.00      -1.19   -1.77   -0.20
#   2    0.25   -1.76    0.83   -0.50   -0.12    0.00    0.00      -1.31   -1.69   -0.41
#   3    1.47   -1.73    0.93   -0.73   -0.13    0.00    0.00      -0.19   -2.49   -0.45
#   4    1.74   -1.01    0.16   -0.44   -0.11    0.00    0.00       0.33   -1.75   -0.45
#   5    1.09   -0.51    0.03   -0.39   -0.07    0.00    0.00       0.15   -2.00   -0.37
#   6   -1.62   -0.20    0.00    0.53   -0.06    0.00    0.00      -1.35    3.90   -0.44
#   7   14.34   -0.62    0.04   -4.07    0.47    0.00    0.00      10.17  -19.50    2.27
#   8   -8.24   -0.49    0.02    2.74   -0.11    0.00    0.00      -6.08   14.64   -0.60
#   9    3.17   -0.51    0.04   -2.42    0.06    0.00    0.00       0.35  -14.35    0.38
#  10   -2.28   -0.46    0.02    1.03   -0.06    0.00    0.00      -1.74    4.38   -0.26
#  11    4.05   -0.83    0.10   -1.99   -0.07    0.00    0.00       1.26   -5.75   -0.21
#  12    3.64   -0.62    0.05   -2.57   -0.05    0.00    0.00       0.44   -8.60   -0.16
#  13    0.10   -1.53    0.59    0.29   -0.20    0.00    0.00      -0.75    0.72   -0.49
#  14   13.47   -1.14    0.12  -13.96    0.37    0.00    0.00      -1.15  -32.57    0.86
#  15  -11.06   -0.02    0.00    6.69    0.16    0.00    0.00      -4.23   24.22    0.58
#  16  -10.09   -0.02    0.00    7.82    0.20    0.00    0.00      -2.09   23.97    0.60
#  17   -7.40   -0.02    0.00    4.97    0.12    0.00    0.00      -2.33   23.78    0.58
#  18   21.67   -1.41    0.59   -7.22    0.43    0.00    0.00      14.06  -24.27    1.43
#  19  -13.37   -0.99    0.10    7.08   -0.50    0.00    0.00      -7.68   23.25   -1.64
#  20    7.89   -1.50    0.24   -4.91   -0.19    0.00    0.00       1.52  -11.92   -0.46
#  21   -5.96   -1.98    0.63    5.06   -0.30    0.00    0.00      -2.55   12.55   -0.75
#  22    3.04   -2.16    1.23   -3.19   -0.11    0.00    0.00      -1.20   -6.03   -0.21
#  23    7.62   -1.66    0.47   -7.57    0.30    0.00    0.00      -0.84  -22.08    0.88
#  24   -5.30   -0.02    0.00    3.34    0.08    0.00    0.00      -1.89   15.84    0.40
#  25   -5.49   -1.17    0.21    6.71   -1.34    0.00    0.00      -1.09   23.19   -4.64
#  26    8.40   -0.84    0.07   -6.10    0.19    0.00    0.00       1.72  -23.23    0.74
#  27    2.73   -1.14    0.16   -5.28    0.58    0.00    0.00      -2.96  -18.67    2.05
#  28   -0.39   -1.14    0.11    1.25   -0.20    0.00    0.00      -0.38    3.55   -0.58
#  29    1.54   -1.41    0.40   -1.49   -0.13    0.00    0.00      -1.10   -4.12   -0.37
#  30    0.91   -2.00    0.46   -1.23   -0.22    0.00    0.00      -2.08   -2.64   -0.47
#  31    0.90   -2.11    0.32   -2.12   -0.26    0.00    0.00      -3.27   -3.79   -0.47
#  32    0.61   -2.25    0.51   -1.55   -0.26    0.00    0.00      -2.95   -2.81   -0.47
#  33    0.29   -2.23    0.61   -1.63   -0.21    0.00    0.00      -3.16   -3.67   -0.47
#  34    0.23   -0.56    0.05   -0.36   -0.08    0.00    0.00      -0.72   -1.92   -0.45
#  35    0.32   -1.22    0.44   -0.60   -0.11    0.00    0.00      -1.17   -2.46   -0.45
#  36   -0.96   -0.39    0.09    0.40   -0.09    0.00    0.00      -0.96    1.26   -0.28
#  37   -0.31   -0.34    0.09    0.23   -0.08    0.00    0.00      -0.41    0.84   -0.28
#  38   -0.29   -0.81    0.77    0.28   -0.12    0.00    0.00      -0.16    0.67   -0.28
#  39   -3.49   -0.37    0.13    0.57   -0.07    0.00    0.00      -3.23    2.24   -0.28
#  40   -3.59   -0.24    0.05    0.70   -0.05    0.00    0.00      -3.13    3.68   -0.28
#  41   -0.47   -0.04    0.00    0.04   -0.01    0.00    0.00      -0.49    0.91   -0.28
#  42   -0.67   -0.04    0.00    0.05   -0.01    0.00    0.00      -0.66    1.43   -0.28
#  43  -13.20   -0.02    0.00    3.03    0.12    0.00    0.00     -10.08   13.89    0.53
#  44   -2.10   -0.12    0.00    0.74   -0.02    0.00    0.00      -1.50    7.31   -0.23
#  45   -3.50   -0.31    0.03    1.25   -0.09    0.00    0.00      -2.62    3.91   -0.28
#  46   -4.32   -0.49    0.18    1.75   -0.09    0.00    0.00      -2.95    5.34   -0.26
#  47   -1.47   -0.12    0.01    0.75   -0.03    0.00    0.00      -0.86    6.32   -0.22
#  48   -1.87   -0.14    0.00    0.67   -0.03    0.00    0.00      -1.36    4.97   -0.20
#  49   -3.46   -0.72    0.35    2.72   -0.12    0.00    0.00      -1.22    6.61   -0.28
#  50   -2.14   -1.62    4.98    2.73   -0.11    0.00    0.00       3.84    6.82   -0.28
#  51  -23.93   -0.10    0.03    4.23    0.14    0.00    0.00     -19.64   16.04    0.52
#  52   -5.54   -0.41    0.13    3.67   -0.12    0.00    0.00      -2.27    8.62   -0.28
#  53   -2.42   -0.54    0.20    2.37   -0.12    0.00    0.00      -0.50    5.58   -0.28
#  54   -2.38   -1.85    6.53    1.59   -0.15    0.00    0.00       3.74    2.97   -0.28
#  55   -2.14   -0.67    0.53    2.10   -0.14    0.00    0.00      -0.32    4.20   -0.28
#  56   -4.79   -0.01    0.00    2.38    0.04    0.00    0.00      -2.39   20.16    0.30
#  57   -0.94   -0.67    1.36    1.91   -0.07    0.00    0.00       1.58    7.92   -0.28
#  58   -1.27   -0.96    1.16    1.68   -0.12    0.00    0.00       0.50    4.01   -0.28
#  59   -0.51   -0.82    0.43    0.91   -0.16    0.00    0.00      -0.15    1.64   -0.28
#  60   -0.89   -0.68    0.23    0.78   -0.16    0.00    0.00      -0.72    1.39   -0.28
#  61    0.60   -1.00    0.67    0.97   -0.12    0.00    0.00       1.12    2.18   -0.28
#  62   -0.22   -0.06    0.00    0.18   -0.02    0.00    0.00      -0.12    2.78   -0.28
#  63   -0.26   -0.25    0.06    0.33   -0.05    0.00    0.00      -0.17    1.74   -0.28

@<TRIPOS>MOLECULE
          T535921        18
   63    65     0     0     0



@<TRIPOS>ATOM
      1 C1          5.7777    -4.5496    85.4565 C.3        1          -0.1265
      2 C2          5.2627    -5.2806    86.6696 C.ar       1          -0.0612
      3 C3          6.0388    -5.3579    87.8111 C.ar       1          -0.1224
      4 C4          5.5665    -6.0285    88.9237 C.ar       1          -0.0945
      5 C5          4.3181    -6.6213    88.8953 C.ar       1          -0.1356
      6 C6          3.8033    -7.3526    90.1082 C.3        1           0.1623
      7 N1          4.0620    -6.5522    91.3075 N.am       1          -0.7045
      8 C7          3.6852    -7.0102    92.5177 C.2        1           0.5083
      9 O1          3.1321    -8.0853    92.6139 O.2        1          -0.5090
     10 C8          3.9512    -6.1866    93.7514 C.3        1           0.0960
     11 C9          3.2385    -4.8385    93.6280 C.3        1          -0.1387
     12 C10         1.7328    -5.0689    93.4835 C.3        1          -0.1744
     13 C11         1.0200    -3.7207    93.3601 C.3        1          -0.0048
     14 N2         -0.4256    -3.9420    93.2213 N.4        1          -0.6401
     15 H1         -0.7704    -4.4317    94.0333 H          1           0.4327
     16 H2         -0.8957    -3.0530    93.1400 H          1           0.4481
     17 H3         -0.6036    -4.4935    92.3953 H          1           0.4383
     18 N3          5.3930    -5.9659    93.8897 N.pl3      1          -0.6400
     19 C12         6.1579    -6.8563    94.5984 C.2        1           0.5580
     20 C13         6.8705    -6.4428    95.7118 C.2        1          -0.3306
     21 C14         7.6364    -7.3686    96.4096 C.2        1           0.3322
     22 C15         8.4165    -6.9332    97.6233 C.3        1          -0.1597
     23 N4          7.6840    -8.6268    96.0158 N.pl3      1          -0.5897
     24 H4          8.2230    -9.2613    96.5135 H          1           0.4536
     25 C16         7.0030    -9.0433    94.9439 C.2        1           0.5544
     26 N5          6.2260    -8.1690    94.2214 N.pl3      1          -0.6083
     27 N6          7.0739   -10.3145    94.5759 N.2        1          -0.5050
     28 C17         7.7354   -11.2164    95.3599 C.ar       1           0.0615
     29 C18         9.1010   -11.4454    95.1681 C.ar       1          -0.1731
     30 C19         9.7620   -12.3571    95.9639 C.ar       1          -0.0941
     31 C20         9.0770   -13.0446    96.9504 C.ar       1          -0.1034
     32 C21         7.7249   -12.8236    97.1460 C.ar       1          -0.0893
     33 C22         7.0514   -11.9107    96.3620 C.ar       1          -0.0955
     34 C23         3.5414    -6.5428    87.7544 C.ar       1          -0.0932
     35 C24         4.0121    -5.8689    86.6429 C.ar       1          -0.1210
     36 H5          6.7727    -4.1561    85.6646 H          1           0.0764
     37 H6          5.8282    -5.2372    84.6123 H          1           0.0730
     38 H7          5.1046    -3.7267    85.2153 H          1           0.0733
     39 H8          7.0142    -4.8948    87.8333 H          1           0.1283
     40 H9          6.1731    -6.0894    89.8152 H          1           0.1234
     41 H10         2.7308    -7.5171    90.0054 H          1           0.0869
     42 H11         4.3113    -8.3131    90.1959 H          1           0.0876
     43 H12         4.5043    -5.6922    91.2306 H          1           0.4049
     44 H13         3.5788    -6.7156    94.6287 H          1           0.1246
     45 H14         3.4308    -4.2428    94.5203 H          1           0.1104
     46 H15         3.6108    -4.3095    92.7507 H          1           0.1174
     47 H16         1.5405    -5.6646    92.5912 H          1           0.0957
     48 H17         1.3604    -5.5980    94.3607 H          1           0.0839
     49 H18         1.2124    -3.1251    94.2524 H          1           0.1437
     50 H19         1.3925    -3.1917    92.4828 H          1           0.1470
     51 H20         5.8062    -5.1899    93.4800 H          1           0.4559
     52 H21         6.8316    -5.4127    96.0338 H          1           0.2002
     53 H22         8.9527    -7.7876    98.0364 H          1           0.1301
     54 H23         9.1298    -6.1598    97.3385 H          1           0.1073
     55 H24         7.7313    -6.5373    98.3728 H          1           0.1283
     56 H25         5.7321    -8.4807    93.4469 H          1           0.4457
     57 H26         9.6367   -10.9099    94.3984 H          1           0.1180
     58 H27        10.8170   -12.5354    95.8166 H          1           0.1366
     59 H28         9.6001   -13.7575    97.5705 H          1           0.1392
     60 H29         7.1968   -13.3641    97.9176 H          1           0.1420
     61 H30         5.9972   -11.7360    96.5186 H          1           0.1361
     62 H31         2.5660    -7.0056    87.7323 H          1           0.1242
     63 H32         3.4041    -5.8047    85.7527 H          1           0.1290
@<TRIPOS>BOND
     1    1    2 1
     2    1   36 1
     3    1   37 1
     4    1   38 1
     5    2   35 ar
     6    2    3 ar
     7    3    4 ar
     8    3   39 1
     9    4    5 ar
    10    4   40 1
    11    5    6 1
    12    5   34 ar
    13    6    7 1
    14    6   41 1
    15    6   42 1
    16    7    8 am
    17    7   43 1
    18    8    9 2
    19    8   10 1
    20   10   11 1
    21   10   18 1
    22   10   44 1
    23   11   12 1
    24   11   45 1
    25   11   46 1
    26   12   13 1
    27   12   47 1
    28   12   48 1
    29   13   14 1
    30   13   49 1
    31   13   50 1
    32   14   15 1
    33   14   16 1
    34   14   17 1
    35   18   19 1
    36   18   51 1
    37   19   26 1
    38   19   20 2
    39   20   21 1
    40   20   52 1
    41   21   22 1
    42   21   23 2
    43   22   53 1
    44   22   54 1
    45   22   55 1
    46   23   24 1
    47   23   25 1
    48   25   26 1
    49   25   27 2
    50   26   56 1
    51   27   28 1
    52   28   33 ar
    53   28   29 ar
    54   29   30 ar
    55   29   57 1
    56   30   31 ar
    57   30   58 1
    58   31   32 ar
    59   31   59 1
    60   32   33 ar
    61   32   60 1
    62   33   61 1
    63   34   35 ar
    64   34   62 1
    65   35   63 1
##########                 Name:              T526649
##########          Protonation:                   89
##########               SMILES:   COc1ccc(cc1)C(=O)[C@@H]2C[C@@H]2C[NH+]3CCC(=CC3)c4c[nH]c5c4cccc5
##########            Long Name:   -tetrahydropyridin-1-ium-1-yl]methyl]cyclopropyl]-(4-methoxyphenyl)methanone
##########          FlexRecCode: 1
##########               Number:                  127
##########   Ligand Source File: /raidb/db2/rgc/tcams/tcams-0000171.db2.gz
##########           GlobalRank: 44
##########                 Rank:                    1
##########               Setnum:                   31
##########             Matchnum:                 5851
##########                Cloud:                    1
##########        Electrostatic:           -44.490650
##########        Van der Waals:           -30.704531
##########  Ligand Polar Desolv:             9.512770
########## Ligand Apolar Desolv:            -4.834078
##########      Internal Energy:             0.000000
##########      Receptor Energy: 0.0
########## Receptor Desolvation:             0.000000
########## Receptor Hydrophobic:             0.000000
##########         Total Energy: -70.52
##########        Ligand Charge:             1.000000
##########            Arbitrary:    +999.9990
##########     heavy atom count:   29
##########           pose count:    1
##########        Ligand Energy:             0.000000
# num electro vdwattr vdwrepu polsolv apolsol rdesolv rhydroe totalscore fullpol fullapo
#   1   -0.12   -1.77    0.45    0.05    0.02    0.00    0.00      -1.38    0.08    0.03
#   2    2.76   -1.63    0.34   -1.06    0.49    0.00    0.00       0.91   -1.93    0.90
#   3   -1.52   -1.66    0.42    0.30   -0.14    0.00    0.00      -2.60    0.66   -0.31
#   4    2.67   -1.63    0.31   -0.92   -0.20    0.00    0.00       0.22   -1.96   -0.42
#   5    0.10   -1.29    0.12   -0.18   -0.17    0.00    0.00      -1.42   -0.47   -0.45
#   6    1.27   -1.40    0.28   -0.96   -0.14    0.00    0.00      -0.95   -2.83   -0.41
#   7    0.05   -1.87    0.55   -0.05   -0.16    0.00    0.00      -1.47   -0.15   -0.44
#   8    0.90   -1.50    0.19   -0.78   -0.19    0.00    0.00      -1.40   -1.85   -0.46
#   9   -2.39   -1.45    0.72    1.97   -0.08    0.00    0.00      -1.23    7.13   -0.30
#  10    2.07   -1.56    0.95   -2.08    0.09    0.00    0.00      -0.54   -7.47    0.33
#  11    1.83   -0.50    0.06   -1.13   -0.09    0.00    0.00       0.17   -4.92   -0.37
#  12    2.84   -0.75    0.17   -0.86   -0.11    0.00    0.00       1.30   -3.30   -0.41
#  13    3.49   -0.39    0.03   -0.60   -0.08    0.00    0.00       2.45   -2.87   -0.36
#  14   -0.70   -0.54    0.07    0.24   -0.05    0.00    0.00      -0.98    1.04   -0.24
#  15   16.84   -2.73    4.05   -3.48    0.09    0.00    0.00      14.77  -10.94    0.28
#  16  -26.47   -0.23    0.14    4.69    0.17    0.00    0.00     -21.70   14.73    0.54
#  17    0.10   -2.45    1.99    0.23   -0.18    0.00    0.00      -0.32    0.50   -0.40
#  18    3.38   -1.06    0.15   -0.99   -0.10    0.00    0.00       1.39   -2.42   -0.24
#  19    0.08   -1.21    0.22   -0.36   -0.12    0.00    0.00      -1.40   -1.16   -0.40
#  20    3.33   -1.38    0.51   -0.94   -0.12    0.00    0.00       1.40   -3.42   -0.45
#  21   -1.01   -1.19    0.38    0.42   -0.12    0.00    0.00      -1.53    1.33   -0.38
#  22    3.91   -1.04    0.07   -0.80   -0.13    0.00    0.00       2.02   -2.34   -0.38
#  23   -2.32   -1.27    0.24    0.26   -0.33    0.00    0.00      -3.43    0.77   -0.99
#  24   20.70   -3.35    2.66   -2.63    0.49    0.00    0.00      17.87   -6.23    1.16
#  25   -2.42   -1.91    0.39    0.09   -0.37    0.00    0.00      -4.21    0.19   -0.78
#  26    2.98   -2.15    0.32   -0.64   -0.28    0.00    0.00       0.21   -1.09   -0.48
#  27    2.26   -2.49    0.45   -0.64   -0.32    0.00    0.00      -0.75   -0.93   -0.47
#  28    3.11   -3.61    1.35   -0.92   -0.28    0.00    0.00      -0.35   -1.53   -0.47
#  29    1.79   -3.59    1.81   -0.42   -0.25    0.00    0.00      -0.66   -0.79   -0.47
#  30    2.02   -1.59    0.20   -0.57   -0.19    0.00    0.00      -0.14   -1.29   -0.44
#  31    0.08   -1.11    1.09    0.43   -0.16    0.00    0.00       0.33    0.71   -0.26
#  32   -0.88   -0.64    0.32    0.64   -0.16    0.00    0.00      -0.73    1.11   -0.28
#  33   -0.44   -0.43    0.06    0.29   -0.12    0.00    0.00      -0.64    0.64   -0.27
#  34   -2.30   -0.33    0.03    0.51   -0.09    0.00    0.00      -2.18    1.26   -0.22
#  35   -2.05   -0.22    0.01    0.32   -0.06    0.00    0.00      -2.00    1.44   -0.27
#  36    0.25   -0.61    0.39    1.06   -0.06    0.00    0.00       1.03    3.69   -0.21
#  37   -0.99   -0.29    0.03    0.48   -0.10    0.00    0.00      -0.87    1.36   -0.28
#  38   -0.65   -0.16    0.03    0.48   -0.03    0.00    0.00      -0.34    3.55   -0.22
#  39   -3.18   -0.43    0.23    0.50   -0.07    0.00    0.00      -2.95    1.94   -0.28
#  40   -2.38   -0.22    0.05    0.55   -0.05    0.00    0.00      -2.05    2.94   -0.28
#  41   -2.23   -0.07    0.00    0.40   -0.01    0.00    0.00      -1.91    6.04   -0.21
#  42   -2.35   -0.09    0.00    0.31   -0.02    0.00    0.00      -2.15    3.77   -0.26
#  43   -3.95   -0.15    0.01    0.50   -0.03    0.00    0.00      -3.62    3.70   -0.23
#  44   -6.68   -0.80    0.86    1.98   -0.13    0.00    0.00      -4.77    4.33   -0.28
#  45   -7.10   -1.76    3.90    2.54   -0.14    0.00    0.00      -2.57    4.96   -0.27
#  46   -3.26   -0.18    0.01    0.39   -0.05    0.00    0.00      -3.09    2.24   -0.28
#  47   -3.22   -0.68    0.35    1.02   -0.11    0.00    0.00      -2.63    2.57   -0.28
#  48   -1.39   -0.20    0.06    0.32   -0.04    0.00    0.00      -1.26    2.04   -0.28
#  49   -5.10   -0.91    0.81    2.37   -0.08    0.00    0.00      -2.91    5.88   -0.21
#  50   -2.74   -0.14    0.01    0.79   -0.04    0.00    0.00      -2.12    5.09   -0.27
#  51   -3.75   -0.19    0.02    0.85   -0.06    0.00    0.00      -3.14    4.01   -0.28
#  52  -20.25   -0.12    0.02    2.40    0.28    0.00    0.00     -17.67    5.02    0.59
#  53   -3.09   -0.64    0.19    0.39   -0.15    0.00    0.00      -3.31    0.72   -0.28
#  54   -3.11   -0.64    0.18    0.49   -0.16    0.00    0.00      -3.23    0.87   -0.28
#  55   -2.93   -1.14    0.68    0.89   -0.17    0.00    0.00      -2.68    1.44   -0.28
#  56   -2.30   -1.86    3.63    1.37   -0.14    0.00    0.00       0.69    2.66   -0.28

@<TRIPOS>MOLECULE
          T526649        89
   56    60     0     0     0



@<TRIPOS>ATOM
      1 C1          9.1807   -12.6921    98.2638 C.3        1           0.0209
      2 O1          8.9553   -11.2954    98.4655 O.3        1          -0.3070
      3 C2          8.1284   -10.6721    97.5890 C.ar       1           0.1777
      4 C3          7.8715    -9.3122    97.7259 C.ar       1          -0.2249
      5 C4          7.0368    -8.6774    96.8425 C.ar       1          -0.0093
      6 C5          6.4425    -9.4010    95.8012 C.ar       1          -0.2245
      7 C6          6.7044   -10.7702    95.6679 C.ar       1          -0.0264
      8 C7          7.5449   -11.3943    96.5535 C.ar       1          -0.1668
      9 C8          5.5472    -8.7264    94.8524 C.2        1           0.4353
     10 O2          4.5392    -8.1824    95.2515 O.2        1          -0.4699
     11 C9          5.8810    -8.7099    93.3828 C.3        1          -0.1868
     12 C10         6.8897    -7.6662    92.8992 C.3        1          -0.1303
     13 C11         5.4054    -7.5084    92.5638 C.3        1          -0.1791
     14 C12         4.6271    -6.4154    93.2993 C.3        1           0.0266
     15 N1          4.6724    -5.1720    92.5184 N.4        1          -0.3848
     16 H1          5.5931    -5.0532    92.1232 H          1           0.4255
     17 C13         4.3566    -4.0295    93.3892 C.3        1          -0.0021
     18 C14         3.0885    -4.3700    94.1746 C.3        1          -0.1130
     19 C15         2.0123    -4.8308    93.2305 C.2        1          -0.0037
     20 C16         2.2792    -5.2194    91.9991 C.2        1          -0.1927
     21 C17         3.6769    -5.2299    91.4410 C.3        1           0.0349
     22 C18         0.6122    -4.8491    93.6975 C.2        1          -0.1823
     23 C19        -0.0251    -5.8798    94.3101 C.2        1           0.0904
     24 N2         -1.3114    -5.5228    94.5929 N.pl3      1          -0.5853
     25 C20        -1.5521    -4.2342    94.1680 C.ar       1           0.0925
     26 C21        -2.6714    -3.4083    94.2126 C.ar       1          -0.1216
     27 C22        -2.6032    -2.1347    93.6919 C.ar       1          -0.0947
     28 C23        -1.4278    -1.6655    93.1223 C.ar       1          -0.1330
     29 C24        -0.3176    -2.4613    93.0684 C.ar       1          -0.0811
     30 C25        -0.3636    -3.7507    93.5957 C.ar       1          -0.0895
     31 H2          9.8585   -13.0654    99.0316 H          1           0.0620
     32 H3          8.2323   -13.2258    98.3259 H          1           0.1096
     33 H4          9.6231   -12.8505    97.2803 H          1           0.0625
     34 H5          8.3300    -8.7551    98.5295 H          1           0.1396
     35 H6          6.8377    -7.6214    96.9498 H          1           0.1375
     36 H7          6.2486   -11.3327    94.8666 H          1           0.1391
     37 H8          7.7508   -12.4493    96.4492 H          1           0.1428
     38 H9          5.8882    -9.6829    92.8916 H          1           0.1431
     39 H10         7.3119    -6.9914    93.6439 H          1           0.1146
     40 H11         7.5610    -7.9523    92.0895 H          1           0.1234
     41 H12         5.1000    -7.6907    91.5335 H          1           0.1365
     42 H13         3.5906    -6.7287    93.4240 H          1           0.1320
     43 H14         5.0758    -6.2462    94.2782 H          1           0.1448
     44 H15         5.1814    -3.8541    94.0799 H          1           0.1318
     45 H16         4.1863    -3.1403    92.7824 H          1           0.1365
     46 H17         3.3071    -5.1633    94.8895 H          1           0.1229
     47 H18         2.7456    -3.4850    94.7106 H          1           0.1061
     48 H19         1.4651    -5.5431    91.3676 H          1           0.1491
     49 H20         3.8074    -4.3680    90.7863 H          1           0.1367
     50 H21         3.8276    -6.1414    90.8627 H          1           0.1361
     51 H22         0.4188    -6.8375    94.5385 H          1           0.1744
     52 H23        -1.9624    -6.0940    95.0298 H          1           0.4231
     53 H24        -3.5905    -3.7648    94.6535 H          1           0.1256
     54 H25        -3.4729    -1.4953    93.7271 H          1           0.1313
     55 H26        -1.3900    -0.6645    92.7183 H          1           0.1267
     56 H27         0.5939    -2.0903    92.6235 H          1           0.1170
@<TRIPOS>BOND
     1    1    2 1
     2    1   31 1
     3    1   32 1
     4    1   33 1
     5    2    3 1
     6    3    8 ar
     7    3    4 ar
     8    4    5 ar
     9    4   34 1
    10    5    6 ar
    11    5   35 1
    12    6    7 ar
    13    6    9 1
    14    7    8 ar
    15    7   36 1
    16    8   37 1
    17    9   10 2
    18    9   11 1
    19   11   13 1
    20   11   12 1
    21   11   38 1
    22   12   13 1
    23   12   39 1
    24   12   40 1
    25   13   14 1
    26   13   41 1
    27   14   15 1
    28   14   42 1
    29   14   43 1
    30   15   16 1
    31   15   21 1
    32   15   17 1
    33   17   18 1
    34   17   44 1
    35   17   45 1
    36   18   19 1
    37   18   46 1
    38   18   47 1
    39   19   20 2
    40   19   22 1
    41   20   21 1
    42   20   48 1
    43   21   49 1
    44   21   50 1
    45   22   30 1
    46   22   23 2
    47   23   24 1
    48   23   51 1
    49   24   25 1
    50   24   52 1
    51   25   30 ar
    52   25   26 ar
    53   26   27 ar
    54   26   53 1
    55   27   28 ar
    56   27   54 1
    57   28   29 ar
    58   28   55 1
    59   29   30 ar
    60   29   56 1
##########                 Name:              T538621
##########          Protonation:                   46
##########               SMILES:   c1ccc(cc1)c2ccccc2CNc3[nH+]c(nc(n3)N4CCC[NH2+]CC4)NCCc5ccc(cc5)O
##########            Long Name:   -6-[(2-phenylphenyl)methylamino]-1,3,5-triazin-1-ium-2-yl]amino]ethyl]phenol
##########          FlexRecCode: 1
##########               Number:                  423
##########   Ligand Source File: /raidb/db2/rgc/tcams/tcams-0001925.db2.gz
##########           GlobalRank: 44
##########                 Rank:                    1
##########               Setnum:                  379
##########             Matchnum:                 1421
##########                Cloud:                    1
##########        Electrostatic:           -43.962845
##########        Van der Waals:           -27.468006
##########  Ligand Polar Desolv:             6.281335
########## Ligand Apolar Desolv:            -5.367869
##########      Internal Energy:             0.000000
##########      Receptor Energy: 0.0
########## Receptor Desolvation:             0.000000
########## Receptor Hydrophobic:             0.000000
##########         Total Energy: -70.52
##########        Ligand Charge:             2.000000
##########            Arbitrary:    +999.9990
##########     heavy atom count:   37
##########           pose count:    1
##########        Ligand Energy:             0.000000
# num electro vdwattr vdwrepu polsolv apolsol rdesolv rhydroe totalscore fullpol fullapo
#   1    0.76   -0.39    0.06   -0.77    0.15    0.00    0.00      -0.19   -6.10    1.19
#   2   -0.51   -0.72    0.18    0.06   -0.05    0.00    0.00      -1.04    0.40   -0.31
#   3    0.30   -0.92    0.28   -0.54   -0.08    0.00    0.00      -0.97   -3.00   -0.46
#   4    0.51   -0.88    0.22   -0.38   -0.09    0.00    0.00      -0.61   -1.91   -0.46
#   5    1.47   -0.73    0.09   -0.35   -0.07    0.00    0.00       0.40   -1.68   -0.36
#   6    1.58   -0.53    0.02   -0.76   -0.07    0.00    0.00       0.24   -2.44   -0.23
#   7   -2.44   -0.77    0.05    1.24   -0.14    0.00    0.00      -2.05    3.27   -0.37
#   8   15.34   -1.04    0.08   -7.07    0.55    0.00    0.00       7.87  -22.20    1.73
#   9  -14.53   -1.26    0.31    6.81   -1.39    0.00    0.00     -10.06   23.60   -4.81
#  10    6.64   -1.11    0.36   -4.84    0.41    0.00    0.00       1.47  -21.14    1.81
#  11   -2.73   -1.22    0.72    5.05   -1.06    0.00    0.00       0.75   21.95   -4.63
#  12    4.88   -1.28    0.38   -5.83    0.51    0.00    0.00      -1.34  -20.91    1.83
#  13  -19.91   -2.08    0.88    7.77   -1.59    0.00    0.00     -14.93   23.56   -4.81
#  14   26.47   -4.24    5.32   -7.49    0.60    0.00    0.00      20.65  -21.10    1.68
#  15   -2.60   -0.87    0.20    1.17   -0.09    0.00    0.00      -2.20    4.21   -0.33
#  16    3.52   -1.61    0.45   -0.62   -0.11    0.00    0.00       1.63   -2.06   -0.37
#  17    2.85   -2.59    1.93   -0.70   -0.15    0.00    0.00       1.35   -2.08   -0.45
#  18    3.19   -2.69    3.20   -1.11   -0.18    0.00    0.00       2.41   -2.95   -0.47
#  19    2.55   -1.70    0.35   -1.01   -0.19    0.00    0.00       0.00   -2.50   -0.47
#  20    3.06   -1.48    0.18   -1.12   -0.19    0.00    0.00       0.46   -2.70   -0.46
#  21    0.57   -1.42    0.30   -0.21   -0.14    0.00    0.00      -0.89   -0.58   -0.38
#  22    0.27   -1.64    0.45   -0.43   -0.12    0.00    0.00      -1.48   -1.23   -0.33
#  23    0.93   -3.36    2.29   -1.21   -0.21    0.00    0.00      -1.55   -2.61   -0.46
#  24    0.46   -3.16    1.58   -1.44   -0.24    0.00    0.00      -2.80   -2.86   -0.47
#  25    0.34   -2.16    0.67   -1.43   -0.22    0.00    0.00      -2.80   -3.10   -0.47
#  26    0.35   -1.03    0.11   -1.01   -0.15    0.00    0.00      -1.73   -3.09   -0.47
#  27    0.44   -0.91    0.11   -0.71   -0.09    0.00    0.00      -1.17   -2.79   -0.37
#  28   20.97   -2.09    0.76   -7.11    0.32    0.00    0.00      12.85  -21.75    0.99
#  29  -20.52   -0.05    0.00    5.22    0.11    0.00    0.00     -15.23   16.89    0.36
#  30    0.86   -0.68    0.11   -3.86    0.25    0.00    0.00      -3.32  -19.19    1.23
#  31   -0.13   -0.60    0.08    0.94   -0.12    0.00    0.00       0.17    3.54   -0.46
#  32    0.23   -0.30    0.01   -1.06   -0.04    0.00    0.00      -1.16   -6.02   -0.24
#  33    0.01   -0.15    0.00    0.04   -0.04    0.00    0.00      -0.14    0.43   -0.45
#  34    0.58   -0.13    0.00   -1.35    0.05    0.00    0.00      -0.85  -21.59    0.79
#  35   -0.44    0.00    0.00    0.63    0.01    0.00    0.00       0.20   21.97    0.49
#  36   -0.53    0.00    0.00    0.75    0.02    0.00    0.00       0.24   22.68    0.57
#  37    0.06   -0.20    0.00   -0.06   -0.06    0.00    0.00      -0.26   -0.48   -0.48
#  38   -0.16   -0.29    0.01    0.52   -0.08    0.00    0.00       0.00    2.65   -0.41
#  39    1.49   -0.67    0.05   -0.44   -0.10    0.00    0.00       0.32   -1.97   -0.46
#  40    1.60   -0.58    0.05   -0.59   -0.09    0.00    0.00       0.39   -2.97   -0.46
#  41   -1.61    0.00    0.00    0.31    0.06    0.00    0.00      -1.24    6.36    1.22
#  42   -0.06   -0.13    0.02    0.19   -0.03    0.00    0.00      -0.01    1.62   -0.28
#  43   -1.01   -0.13    0.01    0.50   -0.03    0.00    0.00      -0.67    4.44   -0.28
#  44   -1.64   -0.17    0.01    0.54   -0.05    0.00    0.00      -1.31    3.06   -0.28
#  45   -1.81   -0.18    0.01    0.62   -0.05    0.00    0.00      -1.41    3.39   -0.28
#  46   -2.66   -0.43    0.09    1.46   -0.09    0.00    0.00      -1.62    4.52   -0.27
#  47   -3.37   -0.28    0.03    1.20   -0.08    0.00    0.00      -2.50    4.11   -0.27
#  48  -10.24   -0.01    0.00    3.25    0.12    0.00    0.00      -6.88   15.40    0.58
#  49  -28.34   -0.33    0.17    5.68    0.24    0.00    0.00     -22.58   13.84    0.58
#  50   -1.40   -0.08    0.00    0.34   -0.01    0.00    0.00      -1.15    4.13   -0.18
#  51   -0.53   -0.32    0.11    1.18   -0.06    0.00    0.00       0.38    5.21   -0.26
#  52   -4.87   -0.61    0.42    1.39   -0.08    0.00    0.00      -3.75    4.59   -0.28
#  53   -3.29   -0.68    0.90    0.69   -0.09    0.00    0.00      -2.47    2.12   -0.28
#  54   -4.44   -0.48    0.17    0.52   -0.10    0.00    0.00      -4.32    1.48   -0.28
#  55   -4.60   -0.44    0.13    0.61   -0.10    0.00    0.00      -4.39    1.68   -0.28
#  56   -3.67   -1.49    3.97    1.21   -0.12    0.00    0.00      -0.12    2.73   -0.28
#  57   -0.51   -0.87    0.61    1.82   -0.15    0.00    0.00       0.89    3.35   -0.28
#  58   -0.30   -0.55    0.18    1.41   -0.12    0.00    0.00       0.61    3.18   -0.28
#  59   -0.30   -0.12    0.00    0.41   -0.03    0.00    0.00      -0.03    3.62   -0.28
#  60   -0.41   -0.09    0.00    0.36   -0.02    0.00    0.00      -0.15    4.08   -0.24
#  61   -0.09   -0.15    0.01    0.37   -0.05    0.00    0.00       0.08    2.09   -0.28
#  62   -0.16   -0.48    0.23    0.90   -0.07    0.00    0.00       0.42    3.05   -0.24
#  63   -0.14   -0.14    0.01    0.77   -0.03    0.00    0.00       0.47    5.48   -0.25
#  64   -0.24   -0.06    0.00    0.23   -0.02    0.00    0.00      -0.08    3.98   -0.28
#  65   -0.15   -0.07    0.00    0.48   -0.02    0.00    0.00       0.25    7.16   -0.28
#  66   -0.14   -0.03    0.00    0.14   -0.01    0.00    0.00      -0.04    4.33   -0.24
#  67   -0.19   -0.07    0.00    0.62   -0.02    0.00    0.00       0.33    8.66   -0.28
#  68   -0.20   -0.06    0.00    0.32   -0.02    0.00    0.00       0.04    4.86   -0.28
#  69   -0.29   -0.07    0.00    0.27   -0.02    0.00    0.00      -0.11    3.73   -0.24
#  70   -0.40   -0.14    0.01    1.09   -0.05    0.00    0.00       0.52    6.14   -0.28
#  71   -2.90   -0.15    0.01    0.58   -0.04    0.00    0.00      -2.50    4.05   -0.28
#  72   -1.81   -0.10    0.00    0.13   -0.02    0.00    0.00      -1.80    1.46   -0.28

@<TRIPOS>MOLECULE
          T538621        46
   72    76     0     0     0



@<TRIPOS>ATOM
      1 O1          4.6637    -9.8877    90.9781 O.3        1          -0.4957
      2 C1          4.3913    -9.0421    92.0065 C.ar       1           0.1243
      3 C2          3.0768    -8.8034    92.3804 C.ar       1          -0.1432
      4 C3          2.8026    -7.9438    93.4264 C.ar       1          -0.0930
      5 C4          3.8368    -7.3210    94.1002 C.ar       1          -0.1178
      6 C5          3.5348    -6.3832    95.2406 C.3        1          -0.0830
      7 C6          3.3705    -4.9608    94.7012 C.3        1           0.0870
      8 N1          2.2679    -4.9285    93.7371 N.pl3      1          -0.6492
      9 C7          2.5142    -5.1600    92.3991 C.ar       1           0.6976
     10 N2          1.5201    -5.5192    91.5926 N.ar       1          -0.6197
     11 C8          1.7574    -5.7422    90.3038 C.ar       1           0.6766
     12 N3          2.9888    -5.6061    89.8213 N.ar       1          -0.6261
     13 C9          3.9826    -5.2472    90.6276 C.ar       1           0.6976
     14 N4          5.2607    -5.1053    90.1266 N.pl3      1          -0.6380
     15 C10         5.6275    -5.7487    88.8626 C.3        1           0.1295
     16 C11         7.0673    -5.4406    88.5413 C.ar       1          -0.1255
     17 C12         8.0317    -5.5411    89.5238 C.ar       1          -0.0864
     18 C13         9.3534    -5.2585    89.2303 C.ar       1          -0.1111
     19 C14         9.7166    -4.8746    87.9518 C.ar       1          -0.0851
     20 C15         8.7607    -4.7715    86.9619 C.ar       1          -0.1024
     21 C16         7.4281    -5.0595    87.2509 C.ar       1          -0.0256
     22 C17         6.3966    -4.9553    86.1892 C.ar       1          -0.0549
     23 C18         6.1804    -3.7408    85.5413 C.ar       1          -0.1036
     24 C19         5.2200    -3.6498    84.5543 C.ar       1          -0.1130
     25 C20         4.4727    -4.7611    84.2081 C.ar       1          -0.1145
     26 C21         4.6829    -5.9691    84.8484 C.ar       1          -0.1175
     27 C22         5.6446    -6.0729    85.8329 C.ar       1          -0.1175
     28 N5          3.7443    -5.0187    91.9155 N.ar       1          -0.6330
     29 H1          4.4687    -4.7525    92.5031 H          1           0.4406
     30 N6          0.7255    -6.1155    89.4667 N.pl3      1          -0.5553
     31 C23         0.7963    -5.7395    88.0820 C.3        1           0.1013
     32 C24         1.5365    -6.8272    87.2704 C.3        1          -0.1610
     33 C25         0.7126    -8.0396    87.0845 C.3        1          -0.0097
     34 N7          0.2479    -8.6330    88.3616 N.4        1          -0.4927
     35 H2         -0.0253    -9.5865    88.1767 H          1           0.4281
     36 H3          1.0342    -8.6581    88.9935 H          1           0.4357
     37 C26        -0.8448    -7.9866    89.0415 C.3        1          -0.0436
     38 C27        -0.4054    -6.8934    90.0386 C.3        1           0.0955
     39 C28         5.1478    -7.5574    93.7298 C.ar       1          -0.0924
     40 C29         5.4275    -8.4204    92.6879 C.ar       1          -0.1425
     41 H4          5.6073    -9.9931    90.7950 H          1           0.3982
     42 H5          2.2685    -9.2891    91.8538 H          1           0.1351
     43 H6          1.7794    -7.7577    93.7177 H          1           0.1277
     44 H7          2.6130    -6.6941    95.7322 H          1           0.0945
     45 H8          4.3552    -6.4074    95.9577 H          1           0.0937
     46 H9          3.1521    -4.2825    95.5259 H          1           0.0922
     47 H10         4.2924    -4.6499    94.2095 H          1           0.0927
     48 H11         1.3647    -4.7444    94.0393 H          1           0.4470
     49 H12         5.9161    -4.5798    90.6114 H          1           0.4453
     50 H13         5.4983    -6.8272    88.9530 H          1           0.1011
     51 H14         4.9883    -5.3719    88.0642 H          1           0.0975
     52 H15         7.7537    -5.8403    90.5235 H          1           0.1310
     53 H16        10.1047    -5.3377    90.0021 H          1           0.1365
     54 H17        10.7501    -4.6549    87.7281 H          1           0.1376
     55 H18         9.0453    -4.4712    85.9642 H          1           0.1340
     56 H19         6.7630    -2.8725    85.8110 H          1           0.1279
     57 H20         5.0513    -2.7088    84.0515 H          1           0.1276
     58 H21         3.7223    -4.6853    83.4351 H          1           0.1252
     59 H22         4.0964    -6.8335    84.5744 H          1           0.1259
     60 H23         5.8110    -7.0176    86.3290 H          1           0.1235
     61 H24        -0.2132    -5.6206    87.6885 H          1           0.1030
     62 H25         1.3328    -4.7949    87.9918 H          1           0.1216
     63 H26         1.7979    -6.4230    86.2925 H          1           0.0989
     64 H27         2.4527    -7.0985    87.7948 H          1           0.1367
     65 H28        -0.1580    -7.7816    86.4815 H          1           0.1467
     66 H29         1.3010    -8.7832    86.5470 H          1           0.1258
     67 H30        -1.4993    -7.5361    88.2953 H          1           0.1579
     68 H31        -1.4113    -8.7430    89.5845 H          1           0.1312
     69 H32        -0.0899    -7.3595    90.9721 H          1           0.1408
     70 H33        -1.2445    -6.2251    90.2320 H          1           0.1185
     71 H34         5.9540    -7.0700    94.2580 H          1           0.1285
     72 H35         6.4518    -8.6076    92.4014 H          1           0.1356
@<TRIPOS>BOND
     1    1    2 1
     2    1   41 1
     3    2   40 ar
     4    2    3 ar
     5    3    4 ar
     6    3   42 1
     7    4    5 ar
     8    4   43 1
     9    5    6 1
    10    5   39 ar
    11    6    7 1
    12    6   44 1
    13    6   45 1
    14    7    8 1
    15    7   46 1
    16    7   47 1
    17    8    9 1
    18    8   48 1
    19    9   28 ar
    20    9   10 ar
    21   10   11 ar
    22   11   12 ar
    23   11   30 1
    24   12   13 ar
    25   13   14 1
    26   13   28 ar
    27   14   15 1
    28   14   49 1
    29   15   16 1
    30   15   50 1
    31   15   51 1
    32   16   21 ar
    33   16   17 ar
    34   17   18 ar
    35   17   52 1
    36   18   19 ar
    37   18   53 1
    38   19   20 ar
    39   19   54 1
    40   20   21 ar
    41   20   55 1
    42   21   22 1
    43   22   27 ar
    44   22   23 ar
    45   23   24 ar
    46   23   56 1
    47   24   25 ar
    48   24   57 1
    49   25   26 ar
    50   25   58 1
    51   26   27 ar
    52   26   59 1
    53   27   60 1
    54   28   29 1
    55   30   38 1
    56   30   31 1
    57   31   32 1
    58   31   61 1
    59   31   62 1
    60   32   33 1
    61   32   63 1
    62   32   64 1
    63   33   34 1
    64   33   65 1
    65   33   66 1
    66   34   35 1
    67   34   36 1
    68   34   37 1
    69   37   38 1
    70   37   67 1
    71   37   68 1
    72   38   69 1
    73   38   70 1
    74   39   40 ar
    75   39   71 1
    76   40   72 1
##########                 Name:              T526941
##########          Protonation:                   14
##########               SMILES:   CC1(NC(=[NH2+])NC(=[NH2+])N1OCCc2ccc3ccccc3c2)C
##########            Long Name:   ene-6,6-dimethyl-1-[2-(2-naphthyl)ethoxy]-1,3,5-triazinan-2-ylidene]ammonium
##########          FlexRecCode: 1
##########               Number:                  215
##########   Ligand Source File: /raidb/db2/rgc/tcams/tcams-0000391.db2.gz
##########           GlobalRank: 46
##########                 Rank:                    1
##########               Setnum:                   47
##########             Matchnum:                 2959
##########                Cloud:                    1
##########        Electrostatic:           -57.158466
##########        Van der Waals:           -27.649145
##########  Ligand Polar Desolv:            18.693882
########## Ligand Apolar Desolv:            -4.299725
##########      Internal Energy:             0.000000
##########      Receptor Energy: 0.0
########## Receptor Desolvation:             0.000000
########## Receptor Hydrophobic:             0.000000
##########         Total Energy: -70.41
##########        Ligand Charge:             2.000000
##########            Arbitrary:    +999.9990
##########     heavy atom count:   23
##########           pose count:    1
##########        Ligand Energy:             0.000000
# num electro vdwattr vdwrepu polsolv apolsol rdesolv rhydroe totalscore fullpol fullapo
#   1    4.56   -1.19    0.23   -3.98   -0.09    0.00    0.00      -0.48   -8.00   -0.18
#   2   -9.09   -0.63    0.03    6.60   -0.14    0.00    0.00      -3.22   17.81   -0.38
#   3    4.42   -1.05    0.21   -2.80   -0.07    0.00    0.00       0.72   -6.77   -0.16
#   4   10.50   -0.64    0.02   -7.46    0.35    0.00    0.00       2.77  -32.11    1.52
#   5  -12.69   -0.52    0.02    7.48   -0.91    0.00    0.00      -6.62   37.36   -4.53
#   6    7.54   -0.42    0.01   -5.30    0.15    0.00    0.00       1.98  -31.37    0.89
#   7   -3.09    0.00    0.00    1.50    0.04    0.00    0.00      -1.56   23.56    0.60
#   8   -5.67   -0.01    0.00    2.25    0.06    0.00    0.00      -3.37   24.42    0.60
#   9   18.29   -0.85    0.09   -7.60    0.28    0.00    0.00      10.22  -31.14    1.15
#  10  -25.24   -1.28    0.18   13.26   -1.63    0.00    0.00     -14.71   35.64   -4.37
#  11   31.59   -3.54    3.28  -15.01    0.44    0.00    0.00      16.75  -30.59    0.89
#  12  -32.58   -0.29    0.24   11.24    0.28    0.00    0.00     -21.10   23.97    0.60
#  13  -19.28   -0.05    0.00   11.04    0.24    0.00    0.00      -8.05   21.13    0.45
#  14   12.33   -1.15    0.07   -8.05    0.33    0.00    0.00       3.54  -21.19    0.87
#  15    1.77   -2.45    1.11   -1.66    0.20    0.00    0.00      -1.03   -3.65    0.43
#  16   -0.11   -1.29    0.32    0.30   -0.05    0.00    0.00      -0.83    0.70   -0.12
#  17    1.30   -0.95    0.20   -0.95   -0.10    0.00    0.00      -0.50   -2.25   -0.24
#  18    1.47   -1.29    0.11   -0.61   -0.15    0.00    0.00      -0.48   -1.48   -0.36
#  19    1.98   -1.83    0.23   -1.07   -0.24    0.00    0.00      -0.93   -2.03   -0.45
#  20    1.41   -2.00    0.41   -1.50   -0.25    0.00    0.00      -1.93   -2.75   -0.46
#  21    0.49   -1.76    0.54   -0.65   -0.18    0.00    0.00      -1.57   -1.46   -0.40
#  22    0.94   -1.94    0.53   -0.97   -0.25    0.00    0.00      -1.69   -1.79   -0.46
#  23    0.77   -1.86    0.23   -1.06   -0.27    0.00    0.00      -2.19   -1.83   -0.47
#  24    0.73   -1.77    0.31   -1.12   -0.24    0.00    0.00      -2.09   -2.23   -0.47
#  25    0.42   -1.66    0.28   -0.67   -0.18    0.00    0.00      -1.81   -1.67   -0.46
#  26    0.36   -1.43    0.19   -0.57   -0.15    0.00    0.00      -1.61   -1.55   -0.40
#  27    0.78   -1.24    0.13   -0.80   -0.15    0.00    0.00      -1.29   -2.28   -0.44
#  28   -3.71   -0.62    0.68    1.25   -0.11    0.00    0.00      -2.51    2.98   -0.27
#  29   -1.82   -0.37    0.07    1.49   -0.10    0.00    0.00      -0.73    4.16   -0.28
#  30   -1.84   -0.52    0.15    2.40   -0.13    0.00    0.00       0.06    4.85   -0.26
#  31   -2.65   -0.28    0.03    0.69   -0.07    0.00    0.00      -2.28    2.59   -0.27
#  32   -2.80   -0.26    0.03    0.63   -0.07    0.00    0.00      -2.47    2.46   -0.28
#  33   -2.87   -0.91    1.43    1.65   -0.12    0.00    0.00      -0.82    3.92   -0.28
#  34   -4.52   -0.01    0.00    2.96    0.08    0.00    0.00      -1.50   21.42    0.58
#  35  -14.84   -0.02    0.00    3.81    0.09    0.00    0.00     -10.95   26.07    0.59
#  36   -1.61   -0.64    0.27    1.65   -0.12    0.00    0.00      -0.44    3.58   -0.26
#  37   -0.82   -0.29    0.03    1.55   -0.07    0.00    0.00       0.41    4.90   -0.22
#  38   -2.12   -0.17    0.01    0.61   -0.05    0.00    0.00      -1.72    3.34   -0.28
#  39   -2.19   -0.58    0.61    0.97   -0.11    0.00    0.00      -1.29    2.59   -0.28
#  40   -2.20   -0.54    0.17    2.22   -0.15    0.00    0.00      -0.50    4.25   -0.28
#  41   -2.81   -0.52    0.13    0.91   -0.14    0.00    0.00      -2.43    1.83   -0.28
#  42   -1.25   -0.50    0.22    0.66   -0.14    0.00    0.00      -1.01    1.34   -0.28
#  43   -0.76   -0.63    0.23    0.63   -0.16    0.00    0.00      -0.68    1.13   -0.28
#  44   -1.49   -0.56    0.31    0.74   -0.12    0.00    0.00      -1.13    1.72   -0.28
#  45   -0.02   -0.45    0.16    0.97   -0.08    0.00    0.00       0.58    3.50   -0.28
#  46   -0.73   -0.23    0.04    1.05   -0.05    0.00    0.00       0.07    5.39   -0.28

@<TRIPOS>MOLECULE
          T526941        14
   46    48     0     0     0



@<TRIPOS>ATOM
      1 C1          1.7095    -6.4324    96.6287 C.3        1          -0.1922
      2 C2          2.1966    -5.8239    95.3122 C.3        1           0.4028
      3 C3          1.3122    -4.6376    94.9227 C.3        1          -0.1739
      4 N1          2.1784    -6.8413    94.2470 N.pl3      1          -0.7064
      5 C4          2.8678    -6.5550    93.0774 C.cat      1           0.7710
      6 N2          2.3533    -6.7796    91.9022 N.pl3      1          -0.6670
      7 H1          1.4632    -7.1577    91.8267 H          1           0.4686
      8 H2          2.8600    -6.5689    91.1025 H          1           0.4604
      9 N3          4.1428    -6.0127    93.2324 N.pl3      1          -0.6711
     10 C5          4.2898    -5.1001    94.2761 C.cat      1           0.7640
     11 N4          5.0340    -4.0372    94.1618 N.pl3      1          -0.6727
     12 H3          5.5057    -3.8623    93.3324 H          1           0.4596
     13 H4          5.1164    -3.4205    94.9059 H          1           0.4606
     14 N5          3.5979    -5.3889    95.4434 N.pl3      1          -0.4865
     15 O1          4.2149    -5.2695    96.7123 O.3        1          -0.0707
     16 C6          4.8609    -6.4634    97.1590 C.3        1           0.0061
     17 C7          6.2275    -6.5876    96.4823 C.3        1          -0.0669
     18 C8          6.9087    -7.8466    96.9534 C.ar       1          -0.1038
     19 C9          7.7271    -7.8036    98.0808 C.ar       1          -0.1212
     20 C10         8.3571    -8.9221    98.5324 C.ar       1          -0.0876
     21 C11         8.1819   -10.1406    97.8544 C.ar       1          -0.0473
     22 C12         8.8155   -11.3166    98.2911 C.ar       1          -0.1069
     23 C13         8.6221   -12.4786    97.6095 C.ar       1          -0.1035
     24 C14         7.8035   -12.5216    96.4822 C.ar       1          -0.1026
     25 C15         7.1738   -11.4029    96.0305 C.ar       1          -0.1134
     26 C16         7.3494   -10.1844    96.7083 C.ar       1          -0.0539
     27 C17         6.7112    -9.0097    96.2749 C.ar       1          -0.0914
     28 H5          0.6726    -6.7505    96.5202 H          1           0.1130
     29 H6          2.3288    -7.2926    96.8825 H          1           0.1243
     30 H7          1.7800    -5.6875    97.4213 H          1           0.0690
     31 H8          1.6678    -4.2121    93.9843 H          1           0.1111
     32 H9          0.2832    -4.9761    94.8014 H          1           0.1012
     33 H10         1.3557    -3.8797    95.7049 H          1           0.1150
     34 H11         1.7030    -7.6792    94.3590 H          1           0.4662
     35 H12         4.8805    -6.2547    92.6510 H          1           0.4807
     36 H13         4.9932    -6.4223    98.2401 H          1           0.0950
     37 H14         4.2477    -7.3267    96.9007 H          1           0.0681
     38 H15         6.0952    -6.6288    95.4011 H          1           0.0937
     39 H16         6.8406    -5.7242    96.7406 H          1           0.1001
     40 H17         7.8634    -6.8685    98.6037 H          1           0.1247
     41 H18         8.9888    -8.8736    99.4070 H          1           0.1342
     42 H19         9.4529   -11.2983    99.1627 H          1           0.1337
     43 H20         9.1105   -13.3808    97.9470 H          1           0.1318
     44 H21         7.6672   -13.4567    95.9594 H          1           0.1305
     45 H22         6.5428   -11.4513    95.1553 H          1           0.1285
     46 H23         6.0707    -9.0289    95.4056 H          1           0.1252
@<TRIPOS>BOND
     1    1    2 1
     2    1   28 1
     3    1   29 1
     4    1   30 1
     5    2   14 1
     6    2    3 1
     7    2    4 1
     8    3   31 1
     9    3   32 1
    10    3   33 1
    11    4    5 1
    12    4   34 1
    13    5    6 2
    14    5    9 1
    15    6    7 1
    16    6    8 1
    17    9   10 1
    18    9   35 1
    19   10   11 2
    20   10   14 1
    21   11   12 1
    22   11   13 1
    23   14   15 1
    24   15   16 1
    25   16   17 1
    26   16   36 1
    27   16   37 1
    28   17   18 1
    29   17   38 1
    30   17   39 1
    31   18   27 ar
    32   18   19 ar
    33   19   20 ar
    34   19   40 1
    35   20   21 ar
    36   20   41 1
    37   21   26 ar
    38   21   22 ar
    39   22   23 ar
    40   22   42 1
    41   23   24 ar
    42   23   43 1
    43   24   25 ar
    44   24   44 1
    45   25   26 ar
    46   25   45 1
    47   26   27 ar
    48   27   46 1
##########                 Name:              T536591
##########          Protonation:                   98
##########               SMILES:   CC[NH+](CC)CCN(CC[NH+](CC)CC)c1ccc2c(c1)Sc3c(ccc(c3S2)Cl)Cl
##########            Long Name:   chlorothianthren-2-yl)-[2-(diethylammonio)ethyl]amino]ethyl-diethyl-ammonium
##########          FlexRecCode: 1
##########               Number:                  192
##########   Ligand Source File: /raidb/db2/rgc/tcams/tcams-0001551.db2.gz
##########           GlobalRank: 46
##########                 Rank:                    1
##########               Setnum:                   65
##########             Matchnum:                  893
##########                Cloud:                    1
##########        Electrostatic:           -39.509895
##########        Van der Waals:           -33.224850
##########  Ligand Polar Desolv:             7.608199
########## Ligand Apolar Desolv:            -5.284647
##########      Internal Energy:             0.000000
##########      Receptor Energy: 0.0
########## Receptor Desolvation:             0.000000
########## Receptor Hydrophobic:             0.000000
##########         Total Energy: -70.41
##########        Ligand Charge:             2.000000
##########            Arbitrary:    +999.9990
##########     heavy atom count:   31
##########           pose count:    1
##########        Ligand Energy:             0.000000
# num electro vdwattr vdwrepu polsolv apolsol rdesolv rhydroe totalscore fullpol fullapo
#   1    4.81   -1.01    0.16   -3.35   -0.08    0.00    0.00       0.53   -8.25   -0.19
#   2    0.28   -0.50    0.02    0.14   -0.12    0.00    0.00      -0.18    0.46   -0.39
#   3    8.50   -0.74    0.06   -4.74    0.05    0.00    0.00       3.14  -16.55    0.19
#   4   -8.88   -0.02    0.00    5.03    0.13    0.00    0.00      -3.74   20.72    0.53
#   5    0.45   -0.93    0.10    0.16   -0.16    0.00    0.00      -0.38    0.40   -0.39
#   6    4.60   -0.75    0.05   -2.80   -0.07    0.00    0.00       1.03   -7.22   -0.19
#   7    0.79   -0.36    0.01   -0.40   -0.07    0.00    0.00      -0.02   -1.92   -0.36
#   8   -3.10   -0.79    0.23    0.83   -0.09    0.00    0.00      -2.92    3.34   -0.37
#   9   13.38   -0.61    0.06   -4.76    0.27    0.00    0.00       8.33  -25.29    1.41
#  10   -1.84   -0.32    0.02    0.51   -0.06    0.00    0.00      -1.69    3.22   -0.38
#  11    0.90   -0.39    0.03   -0.37   -0.07    0.00    0.00       0.10   -1.83   -0.36
#  12    5.79   -0.29    0.01   -2.33    0.03    0.00    0.00       3.21  -16.27    0.20
#  13   -7.47   -0.01    0.00    1.78    0.05    0.00    0.00      -5.65   19.90    0.53
#  14    0.18   -0.24    0.01    0.06   -0.06    0.00    0.00      -0.04    0.42   -0.39
#  15    3.85   -0.69    0.13   -2.26   -0.05    0.00    0.00       0.98   -8.17   -0.19
#  16    0.11   -0.10    0.00    0.03   -0.03    0.00    0.00       0.01    0.45   -0.39
#  17    0.74   -0.18    0.01   -0.71   -0.02    0.00    0.00      -0.15   -6.99   -0.20
#  18   -2.60   -0.57    0.04    2.01   -0.14    0.00    0.00      -1.27    9.89   -0.70
#  19    0.85   -0.75    0.18   -0.78   -0.08    0.00    0.00      -0.58   -4.42   -0.43
#  20    0.02   -2.13    2.18   -0.36   -0.11    0.00    0.00      -0.40   -1.53   -0.46
#  21    0.07   -2.37    1.88   -1.24   -0.08    0.00    0.00      -1.74   -4.14   -0.28
#  22    0.03   -5.09    4.05   -0.38   -0.29    0.00    0.00      -1.67   -0.93   -0.73
#  23    0.58   -1.65    0.30   -0.52   -0.12    0.00    0.00      -1.39   -1.25   -0.28
#  24    0.02   -1.60    0.21   -0.27   -0.16    0.00    0.00      -1.80   -0.50   -0.29
#  25    0.21   -4.56    1.37   -0.37   -0.54    0.00    0.00      -3.90   -0.65   -0.95
#  26    0.61   -2.08    0.53   -0.62   -0.26    0.00    0.00      -1.82   -1.11   -0.46
#  27    1.04   -2.38    0.88   -0.64   -0.25    0.00    0.00      -1.35   -1.18   -0.46
#  28    0.01   -1.99    0.57   -0.17   -0.16    0.00    0.00      -1.73   -0.32   -0.30
#  29    0.58   -4.94    1.21   -0.22   -0.57    0.00    0.00      -3.94   -0.37   -0.95
#  30    0.97   -1.70    0.39   -0.65   -0.11    0.00    0.00      -1.09   -1.63   -0.28
#  31   -0.80   -2.20    0.31    0.33   -0.28    0.00    0.00      -2.63    0.87   -0.73
#  32    0.43   -1.28    0.37   -0.67   -0.08    0.00    0.00      -1.23   -2.29   -0.28
#  33    2.07   -0.77    0.07   -1.13   -0.10    0.00    0.00       0.13   -4.49   -0.41
#  34   -3.29   -0.37    0.08    0.67   -0.09    0.00    0.00      -3.00    2.04   -0.28
#  35   -2.14   -0.59    0.45    0.69   -0.08    0.00    0.00      -1.68    1.92   -0.23
#  36   -1.81   -0.30    0.03    0.77   -0.08    0.00    0.00      -1.39    2.56   -0.28
#  37   -2.76   -0.15    0.01    1.09   -0.04    0.00    0.00      -1.85    7.63   -0.28
#  38   -1.98   -0.11    0.00    1.11   -0.03    0.00    0.00      -1.01    9.65   -0.22
#  39   -5.26   -0.35    0.05    1.62   -0.07    0.00    0.00      -4.01    4.66   -0.21
#  40   -3.79   -0.56    0.21    2.35   -0.10    0.00    0.00      -1.89    6.42   -0.28
#  41   -2.20   -0.43    0.10    0.74   -0.09    0.00    0.00      -1.88    2.37   -0.28
#  42   -2.54   -0.21    0.01    0.25   -0.07    0.00    0.00      -2.56    0.96   -0.28
#  43   -1.51   -0.14    0.00    0.37   -0.02    0.00    0.00      -1.30    3.30   -0.22
#  44   -1.86   -0.10    0.00    0.43   -0.02    0.00    0.00      -1.55    4.86   -0.21
#  45   -1.54   -0.07    0.00    0.59   -0.02    0.00    0.00      -1.04    9.21   -0.28
#  46   -3.60   -0.39    0.14    2.68   -0.06    0.00    0.00      -1.22   10.40   -0.22
#  47   -4.41   -0.44    0.36    1.08   -0.05    0.00    0.00      -3.45    5.15   -0.22
#  48   -1.11   -0.04    0.00    0.16   -0.01    0.00    0.00      -1.00    4.06   -0.22
#  49   -2.22   -0.14    0.01    1.40   -0.03    0.00    0.00      -0.98   10.29   -0.22
#  50   -4.08   -0.30    0.08    2.20   -0.07    0.00    0.00      -2.17    9.20   -0.28
#  51   -2.14   -0.08    0.00    0.39   -0.02    0.00    0.00      -1.85    4.24   -0.21
#  52   -1.18   -0.05    0.00    0.53   -0.01    0.00    0.00      -0.72    9.62   -0.21
#  53   -1.22   -0.05    0.00    0.39   -0.01    0.00    0.00      -0.90    7.87   -0.28
#  54   -1.25   -0.15    0.01    0.38   -0.04    0.00    0.00      -1.05    2.41   -0.28
#  55   -2.90   -0.28    0.08    0.50   -0.06    0.00    0.00      -2.67    2.23   -0.28
#  56   -2.03   -0.37    0.13    0.53   -0.06    0.00    0.00      -1.81    1.92   -0.22
#  57   -0.83   -0.02    0.00    0.13   -0.01    0.00    0.00      -0.73    4.73   -0.21
#  58   -0.84   -0.02    0.00    0.20   -0.01    0.00    0.00      -0.67    6.51   -0.28
#  59   -0.24   -0.03    0.00    0.05   -0.01    0.00    0.00      -0.24    1.05   -0.28
#  60   -0.33   -0.10    0.02    0.27   -0.02    0.00    0.00      -0.16    2.95   -0.22
#  61   -0.31   -0.05    0.00    0.12   -0.02    0.00    0.00      -0.26    2.05   -0.28
#  62   -0.57   -0.07    0.01    0.60   -0.01    0.00    0.00      -0.06    8.57   -0.21
#  63   -0.01   -0.48    0.54    0.53   -0.06    0.00    0.00       0.53    2.56   -0.28
#  64   -0.88   -0.62    0.33    1.32   -0.15    0.00    0.00       0.00    2.41   -0.28
#  65   -2.95   -0.75    0.62    1.49   -0.15    0.00    0.00      -1.74    2.83   -0.28
#  66   -2.93   -0.14    0.01    0.87   -0.03    0.00    0.00      -2.22    6.50   -0.21

@<TRIPOS>MOLECULE
          T536591        98
   66    68     0     0     0



@<TRIPOS>ATOM
      1 C1          0.3109    -4.4092    94.3913 C.3        1          -0.1924
      2 C2          1.0679    -5.6460    93.9032 C.3        1          -0.0138
      3 N1          2.3725    -5.2404    93.3635 N.4        1          -0.3849
      4 H1          2.2346    -4.6045    92.5925 H          1           0.4244
      5 C3          3.1514    -4.5731    94.4153 C.3        1          -0.0155
      6 C4          3.3607    -5.5374    95.5845 C.3        1          -0.1908
      7 C5          3.0994    -6.4279    92.8948 C.3        1          -0.0438
      8 C6          4.4581    -6.0053    92.3328 C.3        1           0.1009
      9 N2          5.1829    -7.1895    91.8653 N.pl3      1          -0.6141
     10 C7          5.5830    -7.2961    90.4601 C.3        1           0.0980
     11 C8          7.1057    -7.4174    90.3712 C.3        1          -0.0438
     12 N3          7.5068    -7.5242    88.9621 N.4        1          -0.3852
     13 H2          7.2054    -6.7007    88.4632 H          1           0.4252
     14 C9          8.9687    -7.6409    88.8765 C.3        1          -0.0139
     15 C10         9.6165    -6.4023    89.4986 C.3        1          -0.1924
     16 C11         6.8850    -8.7136    88.3649 C.3        1          -0.0150
     17 C12         7.3027    -8.8250    86.8972 C.3        1          -0.1915
     18 C13         5.4929    -8.2192    92.7612 C.ar       1           0.1988
     19 C14         5.5872    -9.5298    92.3128 C.ar       1          -0.1648
     20 C15         5.8943   -10.5361    93.2040 C.ar       1          -0.0243
     21 C16         6.1126   -10.2580    94.5553 C.ar       1          -0.1479
     22 S1          6.4991   -11.6073    95.6070 S.3        1           0.0917
     23 C17         7.4881   -10.9675    96.9060 C.ar       1          -0.1027
     24 C18         8.4121   -11.8320    97.5013 C.ar       1          -0.0030
     25 Cl1         8.5383   -13.4696    96.9390 Cl         1          -0.0202
     26 C19         9.2250   -11.4005    98.5292 C.ar       1          -0.0691
     27 C20         9.1279   -10.0974    98.9805 C.ar       1          -0.0737
     28 C21         8.2193    -9.2369    98.3993 C.ar       1          -0.0009
     29 Cl2         8.1023    -7.6016    98.9700 Cl         1          -0.0299
     30 C22         7.3920    -9.6645    97.3563 C.ar       1          -0.1095
     31 S2          6.2718    -8.4974    96.6794 S.3        1           0.0838
     32 C23         6.0184    -8.9537    95.0050 C.ar       1          -0.0680
     33 C24         5.7129    -7.9358    94.0985 C.ar       1          -0.1474
     34 H3         -0.6571    -4.7102    94.7917 H          1           0.1089
     35 H4          0.8889    -3.9140    95.1717 H          1           0.0846
     36 H5          0.1620    -3.7222    93.5582 H          1           0.0834
     37 H6          1.2170    -6.3329    94.7362 H          1           0.1297
     38 H7          0.4900    -6.1411    93.1228 H          1           0.1257
     39 H8          4.1195    -4.2721    94.0149 H          1           0.1379
     40 H9          2.6122    -3.6920    94.7631 H          1           0.1299
     41 H10         3.9386    -5.0425    96.3650 H          1           0.0835
     42 H11         2.3927    -5.8386    95.9849 H          1           0.1108
     43 H12         3.9000    -6.4185    95.2366 H          1           0.0781
     44 H13         3.2483    -7.1149    93.7278 H          1           0.1405
     45 H14         2.5213    -6.9228    92.1143 H          1           0.1317
     46 H15         4.3091    -5.3183    91.4999 H          1           0.0996
     47 H16         5.0361    -5.5102    93.1131 H          1           0.1068
     48 H17         5.1218    -8.1787    90.0168 H          1           0.1076
     49 H18         5.2574    -6.4064    89.9212 H          1           0.0994
     50 H19         7.5669    -6.5348    90.8144 H          1           0.1319
     51 H20         7.4313    -8.3071    90.9102 H          1           0.1400
     52 H21         9.2943    -8.5306    89.4155 H          1           0.1255
     53 H22         9.2663    -7.7201    87.8309 H          1           0.1294
     54 H23        10.7012    -6.4888    89.4351 H          1           0.0837
     55 H24         9.2908    -5.5125    88.9597 H          1           0.1088
     56 H25         9.3190    -6.3229    90.5442 H          1           0.0847
     57 H26         7.2107    -9.6033    88.9038 H          1           0.1380
     58 H27         5.8004    -8.6272    88.4283 H          1           0.1297
     59 H28         6.8413    -9.7076    86.4540 H          1           0.1107
     60 H29         6.9770    -7.9354    86.3583 H          1           0.0780
     61 H30         8.3874    -8.9115    86.8337 H          1           0.0844
     62 H31         5.4205    -9.7601    91.2710 H          1           0.1310
     63 H32         5.9669   -11.5546    92.8521 H          1           0.1448
     64 H33         9.9350   -12.0784    98.9794 H          1           0.1635
     65 H34         9.7608    -9.7541    99.7855 H          1           0.1626
     66 H35         5.6432    -6.9156    94.4459 H          1           0.1307
@<TRIPOS>BOND
     1    1    2 1
     2    1   34 1
     3    1   35 1
     4    1   36 1
     5    2    3 1
     6    2   37 1
     7    2   38 1
     8    3    4 1
     9    3    5 1
    10    3    7 1
    11    5    6 1
    12    5   39 1
    13    5   40 1
    14    6   41 1
    15    6   42 1
    16    6   43 1
    17    7    8 1
    18    7   44 1
    19    7   45 1
    20    8    9 1
    21    8   46 1
    22    8   47 1
    23    9   10 1
    24    9   18 1
    25   10   11 1
    26   10   48 1
    27   10   49 1
    28   11   12 1
    29   11   50 1
    30   11   51 1
    31   12   13 1
    32   12   14 1
    33   12   16 1
    34   14   15 1
    35   14   52 1
    36   14   53 1
    37   15   54 1
    38   15   55 1
    39   15   56 1
    40   16   17 1
    41   16   57 1
    42   16   58 1
    43   17   59 1
    44   17   60 1
    45   17   61 1
    46   18   33 ar
    47   18   19 ar
    48   19   20 ar
    49   19   62 1
    50   20   21 ar
    51   20   63 1
    52   21   32 ar
    53   21   22 1
    54   22   23 1
    55   23   30 ar
    56   23   24 ar
    57   24   25 1
    58   24   26 ar
    59   26   27 ar
    60   26   64 1
    61   27   28 ar
    62   27   65 1
    63   28   29 1
    64   28   30 ar
    65   30   31 1
    66   31   32 1
    67   32   33 ar
    68   33   66 1
##########                 Name:              T539918
##########          Protonation:                   88
##########               SMILES:   Cc1c(c2ccccc2[nH]1)C3=CC[NH+](CC3)C[C@H]4C[C@H]4C(=O)c5ccc(cc5)OC
##########            Long Name:   ndol-3-yl)-1,2,3,6-tetrahydropyridin-1-ium-1-yl]methyl]cyclopropyl]methanone
##########          FlexRecCode: 1
##########               Number:                   83
##########   Ligand Source File: /raidb/db2/rgc/tcams/tcams-0001956.db2.gz
##########           GlobalRank: 47
##########                 Rank:                    1
##########               Setnum:                  164
##########             Matchnum:                 5852
##########                Cloud:                    1
##########        Electrostatic:           -43.603794
##########        Van der Waals:           -31.456997
##########  Ligand Polar Desolv:             9.766888
########## Ligand Apolar Desolv:            -4.982171
##########      Internal Energy:             0.000000
##########      Receptor Energy: 0.0
########## Receptor Desolvation:             0.000000
########## Receptor Hydrophobic:             0.000000
##########         Total Energy: -70.28
##########        Ligand Charge:             1.000000
##########            Arbitrary:    +999.9990
##########     heavy atom count:   30
##########           pose count:    1
##########        Ligand Energy:             0.000000
# num electro vdwattr vdwrepu polsolv apolsol rdesolv rhydroe totalscore fullpol fullapo
#   1   -0.12   -1.78    0.45    0.05    0.02    0.00    0.00      -1.38    0.08    0.03
#   2    2.76   -1.62    0.34   -1.05    0.49    0.00    0.00       0.92   -1.91    0.90
#   3   -1.52   -1.66    0.42    0.30   -0.14    0.00    0.00      -2.61    0.65   -0.31
#   4    2.67   -1.63    0.30   -0.92   -0.20    0.00    0.00       0.23   -1.94   -0.42
#   5    0.10   -1.29    0.12   -0.18   -0.17    0.00    0.00      -1.42   -0.48   -0.45
#   6    1.27   -1.40    0.28   -0.96   -0.14    0.00    0.00      -0.95   -2.84   -0.41
#   7    0.05   -1.88    0.56   -0.05   -0.16    0.00    0.00      -1.47   -0.14   -0.44
#   8    0.89   -1.51    0.19   -0.79   -0.19    0.00    0.00      -1.41   -1.86   -0.46
#   9   -2.39   -1.45    0.72    1.98   -0.08    0.00    0.00      -1.21    7.17   -0.30
#  10    2.09   -1.55    0.93   -2.09    0.09    0.00    0.00      -0.53   -7.49    0.33
#  11    1.82   -0.50    0.06   -1.16   -0.09    0.00    0.00       0.12   -5.06   -0.37
#  12    2.83   -0.74    0.17   -0.86   -0.11    0.00    0.00       1.29   -3.31   -0.41
#  13    3.47   -0.39    0.03   -0.60   -0.08    0.00    0.00       2.43   -2.89   -0.36
#  14   -0.69   -0.54    0.07    0.23   -0.05    0.00    0.00      -0.98    1.02   -0.24
#  15   16.81   -2.73    4.06   -3.48    0.09    0.00    0.00      14.76  -10.94    0.28
#  16  -26.31   -0.23    0.14    4.89    0.17    0.00    0.00     -21.34   15.43    0.54
#  17    0.10   -2.48    2.06    0.22   -0.18    0.00    0.00      -0.29    0.49   -0.40
#  18    3.41   -1.06    0.16   -0.99   -0.10    0.00    0.00       1.42   -2.41   -0.24
#  19    0.00   -1.22    0.22   -0.37   -0.12    0.00    0.00      -1.48   -1.19   -0.37
#  20    3.32   -1.38    0.51   -0.89   -0.12    0.00    0.00       1.43   -3.26   -0.45
#  21   -1.00   -1.19    0.38    0.41   -0.12    0.00    0.00      -1.51    1.32   -0.38
#  22    3.92   -1.04    0.07   -0.76   -0.13    0.00    0.00       2.06   -2.23   -0.38
#  23   -3.01   -1.27    0.24    0.37   -0.26    0.00    0.00      -3.94    1.08   -0.76
#  24    1.89   -0.74    0.09   -0.59   -0.08    0.00    0.00       0.57   -1.58   -0.21
#  25   20.63   -3.34    2.65   -2.41    0.47    0.00    0.00      17.99   -5.70    1.11
#  26   -2.46   -1.90    0.38    0.08   -0.37    0.00    0.00      -4.27    0.17   -0.78
#  27    2.99   -2.15    0.31   -0.56   -0.28    0.00    0.00       0.31   -0.94   -0.48
#  28    2.26   -2.52    0.47   -0.56   -0.32    0.00    0.00      -0.68   -0.82   -0.47
#  29    3.10   -3.67    1.43   -0.77   -0.28    0.00    0.00      -0.19   -1.28   -0.47
#  30    1.80   -3.66    1.91   -0.38   -0.25    0.00    0.00      -0.58   -0.72   -0.47
#  31    1.93   -1.61    0.21   -0.50   -0.19    0.00    0.00      -0.17   -1.14   -0.44
#  32    0.08   -1.11    1.08    0.38   -0.16    0.00    0.00       0.28    0.63   -0.26
#  33   -0.50   -0.65    0.32    0.40   -0.15    0.00    0.00      -0.58    0.69   -0.26
#  34   -0.77   -0.43    0.06    0.50   -0.13    0.00    0.00      -0.76    1.10   -0.28
#  35   -2.31   -0.33    0.03    0.49   -0.09    0.00    0.00      -2.20    1.22   -0.22
#  36   -2.06   -0.22    0.01    0.31   -0.06    0.00    0.00      -2.01    1.40   -0.26
#  37    0.26   -0.62    0.40    1.08   -0.06    0.00    0.00       1.06    3.75   -0.21
#  38   -0.98   -0.30    0.03    0.49   -0.10    0.00    0.00      -0.86    1.37   -0.28
#  39   -0.64   -0.17    0.03    0.49   -0.03    0.00    0.00      -0.32    3.61   -0.22
#  40   -3.17   -0.43    0.23    0.52   -0.07    0.00    0.00      -2.92    2.01   -0.28
#  41   -2.36   -0.21    0.04    0.58   -0.05    0.00    0.00      -2.00    3.11   -0.28
#  42   -2.21   -0.07    0.00    0.41   -0.01    0.00    0.00      -1.88    6.29   -0.21
#  43   -2.36   -0.09    0.00    0.30   -0.02    0.00    0.00      -2.17    3.61   -0.26
#  44   -3.96   -0.15    0.01    0.51   -0.03    0.00    0.00      -3.62    3.77   -0.23
#  45   -6.74   -0.82    0.93    1.75   -0.13    0.00    0.00      -5.01    3.83   -0.28
#  46   -7.16   -1.78    3.94    2.58   -0.14    0.00    0.00      -2.55    5.04   -0.27
#  47   -3.32   -0.18    0.01    0.26   -0.05    0.00    0.00      -3.28    1.50   -0.28
#  48   -3.17   -0.68    0.36    1.32   -0.11    0.00    0.00      -2.29    3.30   -0.28
#  49   -1.39   -0.20    0.05    0.33   -0.04    0.00    0.00      -1.24    2.11   -0.28
#  50   -5.09   -0.91    0.79    2.53   -0.08    0.00    0.00      -2.76    6.28   -0.21
#  51   -2.73   -0.13    0.01    0.75   -0.04    0.00    0.00      -2.15    4.82   -0.27
#  52   -1.87   -0.41    0.12    0.65   -0.11    0.00    0.00      -1.62    1.70   -0.28
#  53   -0.77   -0.13    0.00    0.14   -0.04    0.00    0.00      -0.80    1.00   -0.28
#  54   -1.48   -0.18    0.01    0.57   -0.05    0.00    0.00      -1.13    2.93   -0.27
#  55  -20.11   -0.12    0.02    2.17    0.28    0.00    0.00     -17.76    4.54    0.59
#  56   -3.08   -0.63    0.18    0.37   -0.15    0.00    0.00      -3.31    0.69   -0.28
#  57   -3.10   -0.65    0.20    0.44   -0.16    0.00    0.00      -3.26    0.79   -0.28
#  58   -2.92   -1.17    0.74    0.74   -0.17    0.00    0.00      -2.79    1.19   -0.28
#  59   -2.31   -1.90    3.83    1.07   -0.14    0.00    0.00       0.54    2.07   -0.28

@<TRIPOS>MOLECULE
          T539918        88
   59    63     0     0     0



@<TRIPOS>ATOM
      1 C1          9.1771   -12.6929    98.2669 C.3        1           0.0209
      2 O1          8.9567   -11.2948    98.4646 O.3        1          -0.3069
      3 C2          8.1291   -10.6719    97.5887 C.ar       1           0.1778
      4 C3          7.8769    -9.3106    97.7217 C.ar       1          -0.2249
      5 C4          7.0415    -8.6762    96.8387 C.ar       1          -0.0092
      6 C5          6.4418    -9.4013    95.8016 C.ar       1          -0.2246
      7 C6          6.6991   -10.7717    95.6721 C.ar       1          -0.0265
      8 C7          7.5402   -11.3956    96.5572 C.ar       1          -0.1669
      9 C8          5.5458    -8.7270    94.8533 C.2        1           0.4352
     10 O2          4.5407    -8.1787    95.2537 O.2        1          -0.4696
     11 C9          5.8751    -8.7164    93.3827 C.3        1          -0.1867
     12 C10         6.8856    -7.6774    92.8926 C.3        1          -0.1305
     13 C11         5.4007    -7.5159    92.5612 C.3        1          -0.1789
     14 C12         4.6283    -6.4182    93.2956 C.3        1           0.0264
     15 N1          4.6750    -5.1775    92.5104 N.4        1          -0.3843
     16 H1          5.5949    -5.0629    92.1119 H          1           0.4246
     17 C13         4.3658    -4.0312    93.3784 C.3        1          -0.0021
     18 C14         3.0990    -4.3649    94.1691 C.3        1          -0.1137
     19 C15         2.0183    -4.8254    93.2299 C.2        1          -0.0001
     20 C16         2.2799    -5.2188    91.9989 C.2        1          -0.1921
     21 C17         3.6759    -5.2357    91.4363 C.3        1           0.0345
     22 C18         0.6198    -4.8375    93.7016 C.2        1          -0.1826
     23 C19        -0.0190    -5.8641    94.3198 C.2        1           0.1171
     24 C20         0.5974    -7.2010    94.6419 C.3        1          -0.0996
     25 N2         -1.3030    -5.5020    94.6056 N.pl3      1          -0.5842
     26 C21        -1.5411    -4.2140    94.1771 C.ar       1           0.0943
     27 C22        -2.6574    -3.3842    94.2224 C.ar       1          -0.1221
     28 C23        -2.5867    -2.1127    93.6973 C.ar       1          -0.0951
     29 C24        -1.4117    -1.6492    93.1221 C.ar       1          -0.1329
     30 C25        -0.3044    -2.4488    93.0674 C.ar       1          -0.0812
     31 C26        -0.3528    -3.7363    93.5991 C.ar       1          -0.0856
     32 H2          9.8560   -13.0656    99.0338 H          1           0.0626
     33 H3          8.2274   -13.2234    98.3335 H          1           0.0621
     34 H4          9.6161   -12.8558    97.2826 H          1           0.1096
     35 H5          8.3395    -8.7524    98.5222 H          1           0.1397
     36 H6          6.8460    -7.6191    96.9431 H          1           0.1376
     37 H7          6.2391   -11.3354    94.8739 H          1           0.1390
     38 H8          7.7425   -12.4516    96.4558 H          1           0.1427
     39 H9          5.8778    -9.6909    92.8945 H          1           0.1431
     40 H10         7.3123    -7.0016    93.6337 H          1           0.1145
     41 H11         7.5535    -7.9683    92.0817 H          1           0.1232
     42 H12         5.0916    -7.7006    91.5324 H          1           0.1364
     43 H13         3.5912    -6.7279    93.4246 H          1           0.1322
     44 H14         5.0806    -6.2471    94.2724 H          1           0.1449
     45 H15         5.1934    -3.8562    94.0659 H          1           0.1321
     46 H16         4.1963    -3.1433    92.7693 H          1           0.1367
     47 H17         3.3174    -5.1565    94.8859 H          1           0.1246
     48 H18         2.7609    -3.4770    94.7031 H          1           0.1042
     49 H19         1.4628    -5.5419    91.3711 H          1           0.1487
     50 H20         3.8070    -4.3764    90.7786 H          1           0.1370
     51 H21         3.8217    -6.1496    90.8606 H          1           0.1361
     52 H22        -0.1410    -7.8316    95.1371 H          1           0.0837
     53 H23         0.9259    -7.6812    93.7203 H          1           0.0770
     54 H24         1.4531    -7.0570    95.3016 H          1           0.0808
     55 H25        -1.9545    -6.0694    95.0467 H          1           0.4205
     56 H26        -3.5762    -3.7363    94.6676 H          1           0.1250
     57 H27        -3.4542    -1.4703    93.7331 H          1           0.1310
     58 H28        -1.3721    -0.6499    92.7146 H          1           0.1266
     59 H29         0.6068    -2.0823    92.6182 H          1           0.1179
@<TRIPOS>BOND
     1    1    2 1
     2    1   32 1
     3    1   33 1
     4    1   34 1
     5    2    3 1
     6    3    8 ar
     7    3    4 ar
     8    4    5 ar
     9    4   35 1
    10    5    6 ar
    11    5   36 1
    12    6    7 ar
    13    6    9 1
    14    7    8 ar
    15    7   37 1
    16    8   38 1
    17    9   10 2
    18    9   11 1
    19   11   13 1
    20   11   12 1
    21   11   39 1
    22   12   13 1
    23   12   40 1
    24   12   41 1
    25   13   14 1
    26   13   42 1
    27   14   15 1
    28   14   43 1
    29   14   44 1
    30   15   16 1
    31   15   21 1
    32   15   17 1
    33   17   18 1
    34   17   45 1
    35   17   46 1
    36   18   19 1
    37   18   47 1
    38   18   48 1
    39   19   20 2
    40   19   22 1
    41   20   21 1
    42   20   49 1
    43   21   50 1
    44   21   51 1
    45   22   31 1
    46   22   23 2
    47   23   24 1
    48   23   25 1
    49   24   52 1
    50   24   53 1
    51   24   54 1
    52   25   26 1
    53   25   55 1
    54   26   31 ar
    55   26   27 ar
    56   27   28 ar
    57   27   56 1
    58   28   29 ar
    59   28   57 1
    60   29   30 ar
    61   29   58 1
    62   30   31 ar
    63   30   59 1
##########                 Name:              T531090
##########          Protonation:                   75
##########               SMILES:   [H]/N=C(\N)/Nc1nc(cs1)c2ccc(cc2)NC(=[NH2+])N3CCC[C@H]3C[NH+]4CCCC4
##########            Long Name:   ino]-[(2S)-2-(pyrrolidin-1-ium-1-ylmethyl)pyrrolidin-1-yl]methylene]ammonium
##########          FlexRecCode: 1
##########               Number:                   54
##########   Ligand Source File: /raidb/db2/rgc/tcams/tcams-0000806.db2.gz
##########           GlobalRank: 48
##########                 Rank:                    1
##########               Setnum:                  229
##########             Matchnum:                 3575
##########                Cloud:                    1
##########        Electrostatic:           -49.644432
##########        Van der Waals:           -28.435564
##########  Ligand Polar Desolv:            12.312238
########## Ligand Apolar Desolv:            -4.475273
##########      Internal Energy:             0.000000
##########      Receptor Energy: 0.0
########## Receptor Desolvation:             0.000000
########## Receptor Hydrophobic:             0.000000
##########         Total Energy: -70.24
##########        Ligand Charge:             2.000000
##########            Arbitrary:    +999.9990
##########     heavy atom count:   29
##########           pose count:    1
##########        Ligand Energy:             0.000000
# num electro vdwattr vdwrepu polsolv apolsol rdesolv rhydroe totalscore fullpol fullapo
#   1    7.37   -1.14    0.13   -5.26    0.35    0.00    0.00       1.45  -14.00    0.94
#   2   -5.88   -1.47    0.16    3.92   -2.50    0.00    0.00      -5.77    7.94   -5.06
#   3    7.57   -2.81    0.81   -4.24    0.60    0.00    0.00       1.93   -8.21    1.16
#   4    5.74   -1.72    0.25   -4.29    0.57    0.00    0.00       0.56   -8.02    1.07
#   5   -4.31   -1.59    0.21    1.86   -1.09    0.00    0.00      -4.93    3.79   -2.22
#   6    7.03   -1.52    0.21   -3.10    0.78    0.00    0.00       3.41   -7.12    1.79
#   7   -1.41   -1.77    0.27    0.68   -0.37    0.00    0.00      -2.60    1.32   -0.72
#   8    5.23   -2.80    0.59   -2.10   -0.15    0.00    0.00       0.78   -3.48   -0.25
#   9   -4.10   -5.38    3.12   -0.26   -0.43    0.00    0.00      -7.05   -0.44   -0.74
#  10   -0.44   -1.56    0.25   -0.78   -0.18    0.00    0.00      -2.72   -1.78   -0.41
#  11    1.87   -2.65    1.18   -1.07   -0.20    0.00    0.00      -0.88   -2.31   -0.44
#  12    3.21   -2.04    0.46   -1.70   -0.22    0.00    0.00      -0.29   -3.62   -0.46
#  13   -2.08   -1.41    0.20    2.47   -0.26    0.00    0.00      -1.07    5.88   -0.61
#  14   21.70   -1.60    0.22  -10.67    0.44    0.00    0.00      10.10  -24.75    1.03
#  15  -20.53   -1.00    0.06   11.52   -1.53    0.00    0.00     -11.48   32.76   -4.36
#  16   20.33   -1.55    0.22  -13.25    0.30    0.00    0.00       6.04  -33.55    0.75
#  17  -11.95   -0.06    0.00    8.65    0.15    0.00    0.00      -3.20   23.00    0.41
#  18  -10.97   -0.02    0.00    4.17    0.10    0.00    0.00      -6.71   18.75    0.46
#  19   11.76   -0.58    0.02   -5.44    0.36    0.00    0.00       6.12  -24.65    1.65
#  20   -1.11   -0.32    0.01    0.63   -0.09    0.00    0.00      -0.89    3.41   -0.50
#  21    0.42   -0.56    0.11   -1.20   -0.06    0.00    0.00      -1.28   -5.73   -0.29
#  22    0.93   -0.39    0.05   -1.07   -0.03    0.00    0.00      -0.51   -6.53   -0.19
#  23   -1.84   -0.37    0.02    0.94   -0.05    0.00    0.00      -1.30    4.87   -0.25
#  24    1.00   -0.95    0.52   -0.30   -0.07    0.00    0.00       0.18   -1.26   -0.31
#  25    9.11   -0.58    0.09   -3.42    0.08    0.00    0.00       5.27  -17.07    0.41
#  26   -6.07    0.00    0.00    1.31    0.03    0.00    0.00      -4.74   23.84    0.55
#  27    0.52   -0.73    0.18    0.03   -0.08    0.00    0.00      -0.08    0.12   -0.34
#  28    2.96   -0.43    0.04   -1.31   -0.06    0.00    0.00       1.19   -6.12   -0.29
#  29    3.38   -1.31    0.75   -1.75   -0.09    0.00    0.00       1.00   -6.16   -0.30
#  30    0.20   -0.67    0.13    0.23   -0.12    0.00    0.00      -0.22    0.94   -0.48
#  31    2.74   -1.28    0.15   -1.40   -0.14    0.00    0.00       0.07   -3.64   -0.37
#  32    0.91   -1.47    0.19   -0.86   -0.20    0.00    0.00      -1.43   -2.00   -0.46
#  33   -3.52   -0.01    0.00    1.30    0.11    0.00    0.00      -2.12    7.15    0.59
#  34   -3.42   -0.02    0.00    1.50    0.11    0.00    0.00      -1.83    8.12    0.60
#  35   -5.49   -0.05    0.00    1.45    0.25    0.00    0.00      -3.85    3.47    0.59
#  36   -3.35   -0.04    0.00    3.73    0.28    0.00    0.00       0.62    8.10    0.60
#  37   -4.08   -0.86    0.29    2.29   -0.15    0.00    0.00      -2.51    3.74   -0.24
#  38   -3.67   -1.77    4.18    1.19   -0.11    0.00    0.00      -0.18    2.41   -0.22
#  39   -6.61   -0.79    0.76    2.53   -0.14    0.00    0.00      -4.25    4.95   -0.28
#  40  -19.57   -0.04    0.00    7.87    0.23    0.00    0.00     -11.52   17.41    0.51
#  41   -1.66   -0.11    0.00    0.36   -0.03    0.00    0.00      -1.43    3.40   -0.25
#  42   -1.23   -0.08    0.00    0.37   -0.02    0.00    0.00      -0.96    4.52   -0.28
#  43    0.41   -0.57    0.70    0.47   -0.07    0.00    0.00       0.94    2.02   -0.28
#  44   -0.17   -0.10    0.01    0.26   -0.03    0.00    0.00      -0.04    2.27   -0.28
#  45   -0.10   -0.24    0.09    0.85   -0.04    0.00    0.00       0.57    5.70   -0.24
#  46   -0.81   -0.05    0.00    0.32   -0.01    0.00    0.00      -0.56    5.68   -0.22
#  47   -1.75   -0.12    0.01    0.97   -0.03    0.00    0.00      -0.93    8.90   -0.28
#  48   -5.30   -0.33    0.11    1.75   -0.05    0.00    0.00      -3.82    8.29   -0.26
#  49   -5.94   -1.03    3.46    2.26   -0.05    0.00    0.00      -1.29    9.11   -0.21
#  50   -2.69   -0.10    0.01    0.91   -0.02    0.00    0.00      -1.90    8.01   -0.20
#  51   -6.07   -0.91    1.21    2.09   -0.07    0.00    0.00      -3.75    7.00   -0.24
#  52   -1.32   -0.05    0.00    0.14   -0.01    0.00    0.00      -1.25    2.89   -0.28
#  53   -2.66   -0.13    0.01    0.22   -0.04    0.00    0.00      -2.60    1.56   -0.28
#  54   -1.75   -0.57    0.52    0.41   -0.07    0.00    0.00      -1.47    1.66   -0.28
#  55   -3.57   -0.92    1.08    0.63   -0.10    0.00    0.00      -2.88    1.71   -0.28
#  56   -3.22   -0.28    0.08    1.53   -0.06    0.00    0.00      -1.94    7.04   -0.26
#  57   -1.77   -0.11    0.01    0.78   -0.03    0.00    0.00      -1.12    7.63   -0.28
#  58   -2.16   -0.22    0.01    2.20   -0.06    0.00    0.00      -0.23    8.47   -0.24
#  59   -1.48   -0.48    0.16    1.01   -0.10    0.00    0.00      -0.89    2.68   -0.27

@<TRIPOS>MOLECULE
          T531090        75
   59    62     0     0     0



@<TRIPOS>ATOM
      1 N1          8.5270   -11.2502    95.6017 N.pl3      1          -0.8801
      2 C1          9.3416   -11.9221    96.4823 C.2        1           0.6310
      3 N2          9.7941   -13.1057    96.1780 N.2        1          -0.7964
      4 N3          9.6793   -11.3441    97.6862 N.pl3      1          -0.5930
      5 C2          9.1973   -10.0831    98.0104 C.2        1           0.3500
      6 N4          8.4078    -9.2859    97.3144 N.2        1          -0.5602
      7 C3          8.0420    -8.1014    97.7818 C.2        1           0.0883
      8 C4          8.4899    -7.6966    99.0077 C.2        1          -0.2550
      9 S1          9.4740    -9.1111    99.4849 S.3        1           0.2017
     10 C5          7.1548    -7.2224    96.9815 C.ar       1           0.0262
     11 C6          7.7033    -6.3094    96.0819 C.ar       1          -0.0789
     12 C7          6.8764    -5.4938    95.3388 C.ar       1          -0.0992
     13 C8          5.4973    -5.5809    95.4863 C.ar       1           0.0728
     14 N5          4.6606    -4.7523    94.7313 N.pl3      1          -0.6173
     15 C9          3.4024    -5.1836    94.3772 C.cat      1           0.7498
     16 N6          2.3517    -4.5165    94.7644 N.pl3      1          -0.7735
     17 H1          2.4566    -3.7160    95.3021 H          1           0.4274
     18 H2          1.4651    -4.8205    94.5150 H          1           0.4523
     19 N7          3.2539    -6.3185    93.6149 N.pl3      1          -0.5946
     20 C10         1.9716    -6.8867    93.1609 C.3        1           0.0884
     21 C11         2.2673    -8.3876    92.9167 C.3        1          -0.1292
     22 C12         3.7051    -8.3316    92.3366 C.3        1          -0.1479
     23 C13         4.3478    -7.1625    93.1125 C.3        1           0.1050
     24 C14         5.2476    -6.3482    92.1807 C.3        1          -0.0306
     25 N8          6.0207    -7.2597    91.3266 N.4        1          -0.3912
     26 H3          5.4386    -8.0286    91.0300 H          1           0.4293
     27 C15         6.5284    -6.5321    90.1483 C.3        1          -0.0190
     28 C16         7.8955    -7.1992    89.9036 C.3        1          -0.1459
     29 C17         8.4033    -7.2055    91.3509 C.3        1          -0.1462
     30 C18         7.1796    -7.7687    92.0637 C.3        1          -0.0097
     31 C19         4.9482    -6.4900    96.3824 C.ar       1          -0.1456
     32 C20         5.7708    -7.3119    97.1236 C.ar       1          -0.0645
     33 H4          8.2874   -11.6580    94.7547 H          1           0.4216
     34 H5          8.1884   -10.3700    95.8290 H          1           0.3980
     35 H6          9.5561   -13.5127    95.3302 H          1           0.3637
     36 H7         10.2540   -11.8183    98.3074 H          1           0.4291
     37 H8          8.2991    -6.7779    99.5424 H          1           0.1966
     38 H9          8.7750    -6.2409    95.9675 H          1           0.1489
     39 H10         7.3008    -4.7864    94.6418 H          1           0.1437
     40 H11         4.9670    -3.8737    94.4573 H          1           0.4428
     41 H12         1.2107    -6.7706    93.9326 H          1           0.1046
     42 H13         1.6510    -6.4079    92.2356 H          1           0.1060
     43 H14         2.2447    -8.9473    93.8520 H          1           0.0987
     44 H15         1.5702    -8.8106    92.1934 H          1           0.1183
     45 H16         4.2356    -9.2639    92.5302 H          1           0.1151
     46 H17         3.6820    -8.1144    91.2688 H          1           0.1022
     47 H18         4.9305    -7.5504    93.9480 H          1           0.1193
     48 H19         4.6324    -5.6998    91.5568 H          1           0.1516
     49 H20         5.9300    -5.7401    92.7745 H          1           0.1224
     50 H21         5.8694    -6.6750    89.2919 H          1           0.1435
     51 H22         6.6494    -5.4719    90.3706 H          1           0.1392
     52 H23         7.7841    -8.2109    89.5132 H          1           0.1030
     53 H24         8.5293    -6.5905    89.2588 H          1           0.1233
     54 H25         9.2657    -7.8623    91.4650 H          1           0.1112
     55 H26         8.6318    -6.1967    91.6947 H          1           0.1086
     56 H27         7.1521    -7.4212    93.0963 H          1           0.1330
     57 H28         7.1957    -8.8582    92.0352 H          1           0.1378
     58 H29         3.8762    -6.5556    96.4956 H          1           0.1238
     59 H30         5.3433    -8.0212    97.8169 H          1           0.1500
@<TRIPOS>BOND
     1    1    2 1
     2    1   33 1
     3    1   34 1
     4    2    3 2
     5    2    4 1
     6    3   35 1
     7    4    5 1
     8    4   36 1
     9    5    9 1
    10    5    6 2
    11    6    7 1
    12    7    8 2
    13    7   10 1
    14    8    9 1
    15    8   37 1
    16   10   32 ar
    17   10   11 ar
    18   11   12 ar
    19   11   38 1
    20   12   13 ar
    21   12   39 1
    22   13   14 1
    23   13   31 ar
    24   14   15 1
    25   14   40 1
    26   15   16 2
    27   15   19 1
    28   16   17 1
    29   16   18 1
    30   19   23 1
    31   19   20 1
    32   20   21 1
    33   20   41 1
    34   20   42 1
    35   21   22 1
    36   21   43 1
    37   21   44 1
    38   22   23 1
    39   22   45 1
    40   22   46 1
    41   23   24 1
    42   23   47 1
    43   24   25 1
    44   24   48 1
    45   24   49 1
    46   25   26 1
    47   25   30 1
    48   25   27 1
    49   27   28 1
    50   27   50 1
    51   27   51 1
    52   28   29 1
    53   28   52 1
    54   28   53 1
    55   29   30 1
    56   29   54 1
    57   29   55 1
    58   30   56 1
    59   30   57 1
    60   31   32 ar
    61   31   58 1
    62   32   59 1
##########                 Name:              T525336
##########          Protonation:                   11
##########               SMILES:   c1cc(ccc1CNc2nc([nH+]c(n2)NC3CCCCC3)NCCc4c[nH+]c[nH]4)Cl
##########            Long Name:   exyl-N6-[2-(1H-imidazol-3-ium-5-yl)ethyl]-1,3,5-triazin-1-ium-2,4,6-triamine
##########          FlexRecCode: 1
##########               Number:                   21
##########   Ligand Source File: /raidb/db2/rgc/tcams/tcams-0000090.db2.gz
##########           GlobalRank: 50
##########                 Rank:                    1
##########               Setnum:                  187
##########             Matchnum:                 2211
##########                Cloud:                    1
##########        Electrostatic:           -67.069725
##########        Van der Waals:           -18.087729
##########  Ligand Polar Desolv:            18.242594
########## Ligand Apolar Desolv:            -3.312603
##########      Internal Energy:             0.000000
##########      Receptor Energy: 0.0
########## Receptor Desolvation:             0.000000
########## Receptor Hydrophobic:             0.000000
##########         Total Energy: -70.23
##########        Ligand Charge:             2.000000
##########            Arbitrary:    +999.9990
##########     heavy atom count:   30
##########           pose count:    1
##########        Ligand Energy:             0.000000
# num electro vdwattr vdwrepu polsolv apolsol rdesolv rhydroe totalscore fullpol fullapo
#   1    0.02   -1.19    0.11   -0.34   -0.26    0.00    0.00      -1.66   -1.30   -0.99
#   2    0.01   -0.58    0.05   -0.18   -0.06    0.00    0.00      -0.76   -0.95   -0.30
#   3    0.41   -1.08    0.35   -0.49   -0.10    0.00    0.00      -0.91   -2.18   -0.46
#   4    0.26   -0.66    0.09   -0.27   -0.09    0.00    0.00      -0.67   -1.43   -0.46
#   5    0.05   -0.44    0.08   -0.24   -0.05    0.00    0.00      -0.59   -1.88   -0.37
#   6   -0.26   -0.15    0.01    0.43   -0.04    0.00    0.00      -0.01    4.90   -0.44
#   7    1.93   -0.55    0.11   -2.38    0.24    0.00    0.00      -0.65  -16.94    1.73
#   8   -6.43   -0.37    0.02    2.74   -0.72    0.00    0.00      -4.76   18.20   -4.81
#   9    8.37   -0.50    0.02   -3.88    0.39    0.00    0.00       4.40  -19.64    1.96
#  10  -19.40   -1.11    0.34    5.98   -1.19    0.00    0.00     -15.39   24.20   -4.81
#  11   24.11   -1.85    1.52   -6.80    0.48    0.00    0.00      17.46  -24.60    1.73
#  12   -2.19   -0.47    0.03    0.65   -0.09    0.00    0.00      -2.06    2.78   -0.37
#  13    2.07   -0.72    0.05   -0.97   -0.09    0.00    0.00       0.34   -2.65   -0.25
#  14   -1.03   -0.98    0.05    0.44   -0.24    0.00    0.00      -1.75    1.29   -0.70
#  15   -0.56   -1.55    0.17    0.02   -0.44    0.00    0.00      -2.35    0.05   -1.01
#  16   15.81   -2.89    2.49  -10.24    0.57    0.00    0.00       5.73  -20.63    1.15
#  17  -21.42   -0.14    0.04   10.52    0.30    0.00    0.00     -10.70   20.39    0.59
#  18   -9.89   -1.89    1.00    5.50   -1.30    0.00    0.00      -6.59   14.10   -3.34
#  19   11.27   -0.84    0.03   -6.96    0.37    0.00    0.00       3.87  -22.19    1.18
#  20   20.96   -2.03    1.18   -6.25    0.29    0.00    0.00      14.15  -21.67    0.99
#  21  -20.96   -0.11    0.02    6.98    0.12    0.00    0.00     -13.95   19.06    0.32
#  22  -14.13   -0.78    0.10    4.94   -1.08    0.00    0.00     -10.95   21.90   -4.80
#  23   12.47   -0.75    0.07   -4.57    0.34    0.00    0.00       7.56  -20.34    1.51
#  24   -1.31   -0.20    0.00    0.58   -0.03    0.00    0.00      -0.96    4.70   -0.22
#  25    0.93   -0.23    0.00   -0.58   -0.03    0.00    0.00       0.09   -4.30   -0.24
#  26    1.71   -0.49    0.03   -0.88   -0.07    0.00    0.00       0.30   -3.14   -0.25
#  27    2.39   -0.64    0.07   -1.08   -0.08    0.00    0.00       0.66   -3.57   -0.25
#  28    1.85   -0.44    0.03   -0.73   -0.06    0.00    0.00       0.65   -2.97   -0.25
#  29    1.13   -0.19    0.01   -0.41   -0.02    0.00    0.00       0.51   -3.62   -0.22
#  30    7.41   -0.34    0.01   -2.59    0.30    0.00    0.00       4.79  -18.44    2.12
#  31    0.01   -0.43    0.10   -0.16   -0.05    0.00    0.00      -0.53   -1.44   -0.46
#  32    0.02   -0.42    0.05   -0.30   -0.06    0.00    0.00      -0.72   -2.18   -0.46
#  33   -1.51   -0.86    2.43    0.41   -0.07    0.00    0.00       0.41    1.68   -0.28
#  34   -0.92   -0.13    0.02    0.47   -0.03    0.00    0.00      -0.60    4.02   -0.28
#  35   -0.33   -0.03    0.00    0.09   -0.01    0.00    0.00      -0.28    3.21   -0.28
#  36   -0.14   -0.02    0.00    0.08   -0.01    0.00    0.00      -0.08    3.22   -0.28
#  37    0.17   -0.03    0.00    1.67    0.09    0.00    0.00       1.90   10.31    0.58
#  38  -22.88   -0.09    0.02    4.85    0.16    0.00    0.00     -17.93   17.46    0.58
#  39   -1.57   -0.09    0.00    0.56   -0.02    0.00    0.00      -1.12    6.45   -0.27
#  40   -1.44   -0.13    0.00    0.65   -0.03    0.00    0.00      -0.95    6.02   -0.27
#  41   -3.95   -0.29    0.02    1.55   -0.09    0.00    0.00      -2.77    4.80   -0.28
#  42   -4.62   -0.32    0.05    1.52   -0.08    0.00    0.00      -3.44    5.42   -0.28
#  43   -5.61   -0.41    0.08    4.22   -0.11    0.00    0.00      -1.84   10.30   -0.28
#  44   -9.86   -0.59    0.49    5.07   -0.10    0.00    0.00      -4.98   14.36   -0.28
#  45   -8.49   -0.01    0.00    2.78    0.08    0.00    0.00      -5.64   20.91    0.59
#  46  -10.88   -0.02    0.00    2.78    0.13    0.00    0.00      -7.99   12.52    0.58
#  47   -0.60   -0.04    0.00    0.27   -0.01    0.00    0.00      -0.38    6.51   -0.23
#  48   -0.61   -0.09    0.00    0.06   -0.02    0.00    0.00      -0.66    0.72   -0.28
#  49   -0.12   -0.04    0.00    0.16   -0.01    0.00    0.00       0.00    4.11   -0.28
#  50   -1.69   -0.22    0.03    0.34   -0.06    0.00    0.00      -1.61    1.46   -0.28
#  51   -0.81   -0.19    0.02    0.92   -0.05    0.00    0.00      -0.11    4.98   -0.28
#  52   -2.30   -0.42    0.15    0.04   -0.09    0.00    0.00      -2.62    0.12   -0.28
#  53   -0.66   -0.18    0.02    0.21   -0.06    0.00    0.00      -0.68    0.97   -0.28
#  54   -1.86   -0.13    0.01    0.04   -0.04    0.00    0.00      -1.99    0.28   -0.28
#  55   -0.89   -0.26    0.08    0.57   -0.05    0.00    0.00      -0.54    3.37   -0.28
#  56   -0.33   -0.05    0.00    0.13   -0.02    0.00    0.00      -0.26    2.13   -0.28
#  57   -0.72   -0.04    0.00    0.04   -0.01    0.00    0.00      -0.73    0.99   -0.28
#  58   -0.04   -0.05    0.00    0.22   -0.02    0.00    0.00       0.12    4.00   -0.28
#  59   -0.03   -0.05    0.00    0.09   -0.01    0.00    0.00      -0.01    1.68   -0.28

@<TRIPOS>MOLECULE
          T525336        11
   59    62     0     0     0



@<TRIPOS>ATOM
      1 Cl1         3.5577   -16.6880    90.9514 Cl         1          -0.0464
      2 C1          4.2752   -15.1213    90.7406 C.ar       1          -0.0139
      3 C2          5.5879   -14.9046    91.1199 C.ar       1          -0.1107
      4 C3          6.1586   -13.6570    90.9520 C.ar       1          -0.0794
      5 C4          5.4178   -12.6256    90.4055 C.ar       1          -0.1368
      6 C5          6.0406   -11.2656    90.2226 C.3        1           0.1643
      7 N1          5.8175   -10.4604    91.4259 N.pl3      1          -0.6252
      8 C6          6.3007    -9.1693    91.4915 C.ar       1           0.6781
      9 N2          5.7909    -8.3126    92.3710 N.ar       1          -0.6075
     10 C7          6.2562    -7.0691    92.4342 C.ar       1           0.6972
     11 N3          5.7272    -6.1798    93.3474 N.pl3      1          -0.6726
     12 C8          4.4057    -6.4268    93.9296 C.3        1           0.0933
     13 C9          3.7373    -5.0914    94.2622 C.3        1          -0.0694
     14 C10         2.3779    -5.3455    94.8611 C.2        1           0.0430
     15 C11         2.0928    -5.5008    96.1680 C.2        1           0.0221
     16 N4          0.7725    -5.7073    96.2831 N.pl3      1          -0.4733
     17 H1          0.2969    -5.8498    97.1164 H          1           0.4727
     18 C12         0.2286    -5.6859    95.0970 C.cat      1           0.3249
     19 N5          1.1948    -5.4569    94.1817 N.pl3      1          -0.5105
     20 N6          7.2317    -6.6822    91.6179 N.ar       1          -0.6380
     21 H2          7.5714    -5.7747    91.6641 H          1           0.4313
     22 C13         7.7419    -7.5389    90.7389 C.ar       1           0.6931
     23 N7          8.7547    -7.1373    89.8919 N.pl3      1          -0.6549
     24 C14         9.3171    -8.0816    88.9230 C.3        1           0.1273
     25 C15        10.7844    -7.7338    88.6645 C.3        1          -0.1424
     26 C16        10.8809    -6.3124    88.1064 C.3        1          -0.1144
     27 C17        10.0973    -6.2251    86.7953 C.3        1          -0.1318
     28 C18         8.6300    -6.5728    87.0538 C.3        1          -0.1164
     29 C19         8.5335    -7.9942    87.6118 C.3        1          -0.1299
     30 N8          7.2797    -8.7841    90.6791 N.ar       1          -0.6111
     31 C20         4.1060   -12.8416    90.0264 C.ar       1          -0.0796
     32 C21         3.5361   -14.0903    90.1881 C.ar       1          -0.1108
     33 H3          6.1665   -15.7100    91.5475 H          1           0.1426
     34 H4          7.1834   -13.4877    91.2480 H          1           0.1357
     35 H5          7.1116   -11.3764    90.0527 H          1           0.0992
     36 H6          5.5860   -10.7703    89.3645 H          1           0.0996
     37 H7          5.3303   -10.8347    92.1765 H          1           0.4363
     38 H8          6.2304    -5.3912    93.6038 H          1           0.4480
     39 H9          3.7902    -6.9732    93.2149 H          1           0.0941
     40 H10         4.5142    -7.0157    94.8404 H          1           0.0879
     41 H11         4.3528    -4.5451    94.9770 H          1           0.1178
     42 H12         3.6288    -4.5025    93.3514 H          1           0.1332
     43 H13         2.8028    -5.4654    96.9811 H          1           0.2276
     44 H14        -0.8210    -5.8242    94.8832 H          1           0.2717
     45 H15         1.0735    -5.3866    93.2219 H          1           0.4678
     46 H16         9.0943    -6.2299    89.9380 H          1           0.4469
     47 H17         9.2482    -9.0942    89.3206 H          1           0.0829
     48 H18        11.3425    -7.7960    89.5986 H          1           0.0910
     49 H19        11.2026    -8.4363    87.9436 H          1           0.0586
     50 H20        10.4626    -5.6100    88.8273 H          1           0.0782
     51 H21        11.9262    -6.0647    87.9222 H          1           0.0590
     52 H22        10.1661    -5.2125    86.3977 H          1           0.0742
     53 H23        10.5156    -6.9275    86.0745 H          1           0.0759
     54 H24         8.2117    -5.8703    87.7747 H          1           0.0845
     55 H25         8.0718    -6.5105    86.1197 H          1           0.0654
     56 H26         8.9517    -8.6967    86.8911 H          1           0.0839
     57 H27         7.4880    -8.2419    87.7960 H          1           0.0877
     58 H28         3.5277   -12.0353    89.5999 H          1           0.1354
     59 H29         2.5129   -14.2602    89.8875 H          1           0.1425
@<TRIPOS>BOND
     1    1    2 1
     2    2   32 ar
     3    2    3 ar
     4    3    4 ar
     5    3   33 1
     6    4    5 ar
     7    4   34 1
     8    5    6 1
     9    5   31 ar
    10    6    7 1
    11    6   35 1
    12    6   36 1
    13    7    8 1
    14    7   37 1
    15    8   30 ar
    16    8    9 ar
    17    9   10 ar
    18   10   11 1
    19   10   20 ar
    20   11   12 1
    21   11   38 1
    22   12   13 1
    23   12   39 1
    24   12   40 1
    25   13   14 1
    26   13   41 1
    27   13   42 1
    28   14   19 1
    29   14   15 2
    30   15   16 1
    31   15   43 1
    32   16   17 1
    33   16   18 2
    34   18   19 1
    35   18   44 1
    36   19   45 1
    37   20   21 1
    38   20   22 ar
    39   22   23 1
    40   22   30 ar
    41   23   24 1
    42   23   46 1
    43   24   29 1
    44   24   25 1
    45   24   47 1
    46   25   26 1
    47   25   48 1
    48   25   49 1
    49   26   27 1
    50   26   50 1
    51   26   51 1
    52   27   28 1
    53   27   52 1
    54   27   53 1
    55   28   29 1
    56   28   54 1
    57   28   55 1
    58   29   56 1
    59   29   57 1
    60   31   32 ar
    61   31   58 1
    62   32   59 1
##########                 Name:              T527968
##########          Protonation:                   39
##########               SMILES:   Cc1c[nH+]/c(=N/c2ccccc2)/[nH]c1N[C@@H](CCC[NH3+])C(=O)Nc3ccccc3
##########            Long Name:   -5-methyl-2-phenylimino-1H-pyrimidin-3-ium-6-yl]amino]-5-oxo-pentyl]ammonium
##########          FlexRecCode: 1
##########               Number:                   51
##########   Ligand Source File: /raidb/db2/rgc/tcams/tcams-0000342.db2.gz
##########           GlobalRank: 50
##########                 Rank:                    1
##########               Setnum:                  339
##########             Matchnum:                 2064
##########                Cloud:                    1
##########        Electrostatic:           -51.215675
##########        Van der Waals:           -25.381489
##########  Ligand Polar Desolv:             9.872873
########## Ligand Apolar Desolv:            -3.501405
##########      Internal Energy:             0.000000
##########      Receptor Energy: 0.0
########## Receptor Desolvation:             0.000000
########## Receptor Hydrophobic:             0.000000
##########         Total Energy: -70.23
##########        Ligand Charge:             2.000000
##########            Arbitrary:    +999.9990
##########     heavy atom count:   29
##########           pose count:    1
##########        Ligand Energy:             0.000000
# num electro vdwattr vdwrepu polsolv apolsol rdesolv rhydroe totalscore fullpol fullapo
#   1    3.55   -1.37    0.24   -1.84   -0.08    0.00    0.00       0.50   -3.94   -0.18
#   2    7.72   -1.25    0.11   -4.05   -0.16    0.00    0.00       2.37  -10.45   -0.41
#   3  -12.73   -0.76    0.03    5.77   -0.45    0.00    0.00      -8.13   21.20   -1.66
#   4   18.03   -0.96    0.12   -6.02    0.33    0.00    0.00      11.51  -23.30    1.29
#   5   -1.84   -0.34    0.02    0.86   -0.05    0.00    0.00      -1.36    4.58   -0.25
#   6    3.30   -0.48    0.07   -1.13   -0.04    0.00    0.00       1.73   -5.76   -0.21
#   7    3.04   -0.39    0.03   -1.61   -0.04    0.00    0.00       1.04   -7.93   -0.19
#   8    0.09   -0.41    0.03    0.14   -0.09    0.00    0.00      -0.24    0.71   -0.48
#   9    7.78   -0.21    0.00   -3.36    0.09    0.00    0.00       4.30  -32.14    0.86
#  10   -5.01    0.00    0.00    1.01    0.03    0.00    0.00      -3.98   23.90    0.60
#  11   -6.24    0.00    0.00    1.23    0.03    0.00    0.00      -4.98   23.66    0.59
#  12   -3.24    0.00    0.00    0.76    0.02    0.00    0.00      -2.46   23.91    0.59
#  13   -5.79   -0.74    0.11    2.92   -0.12    0.00    0.00      -3.64   13.88   -0.59
#  14   -2.13   -2.81    3.88   -3.10    0.08    0.00    0.00      -4.09  -13.04    0.33
#  15   12.07   -0.77    0.04   -4.55    0.43    0.00    0.00       7.22  -17.17    1.62
#  16   -1.42   -0.98    0.08    0.95   -0.21    0.00    0.00      -1.57    3.04   -0.68
#  17    2.14   -1.25    0.12   -1.03   -0.18    0.00    0.00      -0.20   -2.64   -0.46
#  18    1.34   -1.53    0.16   -0.99   -0.23    0.00    0.00      -1.24   -2.06   -0.47
#  19    0.99   -2.27    1.07   -1.04   -0.20    0.00    0.00      -1.44   -2.43   -0.47
#  20    0.29   -2.15    0.62   -0.76   -0.18    0.00    0.00      -2.18   -1.96   -0.47
#  21    0.39   -1.80    0.86   -0.79   -0.13    0.00    0.00      -1.47   -2.41   -0.40
#  22   11.20   -0.60    0.01   -5.54    0.19    0.00    0.00       5.27  -23.30    0.81
#  23  -13.13   -1.00    0.10    7.04   -1.50    0.00    0.00      -8.48   21.64   -4.62
#  24   13.32   -1.81    0.63   -6.40    0.71    0.00    0.00       6.44  -18.39    2.04
#  25   -0.78   -1.86    1.54    0.98   -0.17    0.00    0.00      -0.30    3.28   -0.58
#  26    1.83   -1.59    1.13   -1.54   -0.11    0.00    0.00      -0.28   -5.38   -0.37
#  27    0.25   -0.97    0.23   -0.71   -0.12    0.00    0.00      -1.32   -2.87   -0.47
#  28    0.22   -0.70    0.11   -0.81   -0.10    0.00    0.00      -1.28   -4.01   -0.47
#  29    0.20   -0.98    0.16   -0.71   -0.13    0.00    0.00      -1.46   -2.57   -0.47
#  30    0.37   -1.57    0.54   -1.13   -0.16    0.00    0.00      -1.95   -3.28   -0.47
#  31   15.74   -1.79    0.43   -8.73    0.44    0.00    0.00       6.08  -20.07    1.01
#  32  -17.80   -0.07    0.01    7.78    0.25    0.00    0.00      -9.82   18.11    0.59
#  33   -7.96   -2.06    0.57    5.89   -0.43    0.00    0.00      -3.98   13.06   -0.95
#  34   -4.21   -0.41    0.16    1.27   -0.09    0.00    0.00      -3.28    3.66   -0.27
#  35   -3.17   -0.80    0.33    0.61   -0.15    0.00    0.00      -3.17    1.17   -0.28
#  36   -2.32   -0.50    0.18    1.15   -0.09    0.00    0.00      -1.58    3.57   -0.28
#  37  -18.80   -0.04    0.00    4.18    0.13    0.00    0.00     -14.53   15.32    0.46
#  38   -1.26   -0.07    0.00    0.40   -0.01    0.00    0.00      -0.94    6.21   -0.22
#  39   -4.36   -0.50    0.53    0.88   -0.06    0.00    0.00      -3.52    4.07   -0.28
#  40   -1.94   -0.07    0.00    0.39   -0.02    0.00    0.00      -1.64    5.64   -0.25
#  41   -0.87   -0.05    0.00    0.24   -0.01    0.00    0.00      -0.69    5.40   -0.27
#  42   -1.83   -0.21    0.03    1.00   -0.05    0.00    0.00      -1.07    4.65   -0.22
#  43   -1.20   -0.11    0.01    0.70   -0.03    0.00    0.00      -0.63    6.54   -0.28
#  44   -4.30   -0.27    0.05    1.48   -0.06    0.00    0.00      -3.10    6.89   -0.28
#  45  -11.97   -0.02    0.00    2.97    0.11    0.00    0.00      -8.91   14.68    0.54
#  46   -2.67   -0.31    0.06    1.41   -0.08    0.00    0.00      -1.60    4.67   -0.28
#  47   -2.31   -0.35    0.03    1.09   -0.13    0.00    0.00      -1.67    2.31   -0.28
#  48   -1.24   -0.88    1.70    0.44   -0.10    0.00    0.00      -0.09    1.29   -0.28
#  49    0.04   -0.56    0.17    0.49   -0.10    0.00    0.00       0.04    1.32   -0.28
#  50    0.27   -0.65    0.70    0.45   -0.05    0.00    0.00       0.72    1.86   -0.22
#  51   -5.37   -0.01    0.00    1.31    0.01    0.00    0.00      -4.05   17.18    0.19
#  52   -1.85   -0.23    0.05    0.65   -0.06    0.00    0.00      -1.44    3.24   -0.28
#  53   -0.24   -0.14    0.01    0.54   -0.05    0.00    0.00       0.12    2.88   -0.28
#  54   -0.22   -0.07    0.00    0.20   -0.02    0.00    0.00      -0.10    2.82   -0.28
#  55   -0.21   -0.21    0.05    0.86   -0.06    0.00    0.00       0.44    4.13   -0.28
#  56   -0.93   -0.43    0.18    1.75   -0.10    0.00    0.00       0.46    4.81   -0.28
#  57   -6.04   -0.87    0.54    5.92   -0.14    0.00    0.00      -0.58   12.24   -0.28

@<TRIPOS>MOLECULE
          T527968        39
   57    59     0     0     0



@<TRIPOS>ATOM
      1 C1          4.4868    -4.4008    95.2647 C.3        1          -0.1062
      2 C2          3.1143    -4.9409    94.9561 C.2        1          -0.2862
      3 C3          2.8712    -5.5935    93.7587 C.2        1           0.5516
      4 N1          3.8739    -5.7579    92.8379 N.pl3      1          -0.6416
      5 C4          4.2779    -7.1049    92.4272 C.3        1           0.1007
      6 C5          5.4067    -7.0076    91.3992 C.3        1          -0.1381
      7 C6          4.8175    -6.6928    90.0227 C.3        1          -0.1679
      8 C7          5.9465    -6.5955    88.9948 C.3        1          -0.0054
      9 N2          6.6682    -7.8739    88.9377 N.4        1          -0.6398
     10 H1          7.4127    -7.8097    88.2597 H          1           0.4485
     11 H2          7.0568    -8.0814    89.8455 H          1           0.4367
     12 H3          6.0307    -8.6083    88.6688 H          1           0.4346
     13 C8          4.7591    -7.8739    93.6307 C.2        1           0.5050
     14 O1          4.2006    -8.8995    93.9580 O.2        1          -0.4884
     15 N3          5.8101    -7.4219    94.3430 N.am       1          -0.6507
     16 C9          6.2569    -8.1359    95.4604 C.ar       1           0.1157
     17 C10         6.8462    -7.4656    96.5244 C.ar       1          -0.1332
     18 C11         7.2862    -8.1732    97.6259 C.ar       1          -0.0966
     19 C12         7.1405    -9.5477    97.6699 C.ar       1          -0.1135
     20 C13         6.5545   -10.2180    96.6119 C.ar       1          -0.0980
     21 C14         6.1067    -9.5155    95.5102 C.ar       1          -0.1155
     22 N4          1.6142    -6.0717    93.5111 N.pl3      1          -0.6426
     23 C15         0.6243    -5.8961    94.4488 C.2        1           0.5551
     24 N5         -0.5941    -6.3592    94.2095 N.2        1          -0.4948
     25 C16        -0.8323    -7.1106    93.0941 C.ar       1           0.0723
     26 C17        -1.2089    -6.4928    91.8981 C.ar       1          -0.1725
     27 C18        -1.4473    -7.2581    90.7760 C.ar       1          -0.0937
     28 C19        -1.3151    -8.6346    90.8321 C.ar       1          -0.1084
     29 C20        -0.9427    -9.2535    92.0127 C.ar       1          -0.0973
     30 C21        -0.6953    -8.5009    93.1415 C.ar       1          -0.1089
     31 N6          0.8769    -5.2642    95.5989 N.pl3      1          -0.5408
     32 H4          0.1638    -5.1516    96.2468 H          1           0.4669
     33 C22         2.0795    -4.7950    95.8716 C.2        1           0.3038
     34 H5          5.1563    -4.6116    94.4307 H          1           0.1008
     35 H6          4.4272    -3.3234    95.4191 H          1           0.0876
     36 H7          4.8701    -4.8765    96.1675 H          1           0.0818
     37 H8          4.3157    -4.9822    92.4583 H          1           0.4535
     38 H9          3.4259    -7.6202    91.9837 H          1           0.1207
     39 H10         6.0953    -6.2141    91.6897 H          1           0.1117
     40 H11         5.9424    -7.9560    91.3568 H          1           0.1169
     41 H12         4.1289    -7.4863    89.7323 H          1           0.0927
     42 H13         4.2819    -5.7444    90.0651 H          1           0.0826
     43 H14         5.5267    -6.3714    88.0142 H          1           0.1440
     44 H15         6.6351    -5.8022    89.2852 H          1           0.1463
     45 H16         6.2568    -6.6016    94.0812 H          1           0.4118
     46 H17         6.9607    -6.3923    96.4904 H          1           0.1275
     47 H18         7.7449    -7.6526    98.4534 H          1           0.1352
     48 H19         7.4853   -10.0987    98.5323 H          1           0.1334
     49 H20         6.4423   -11.2916    96.6491 H          1           0.1330
     50 H21         5.6445   -10.0391    94.6865 H          1           0.1297
     51 H22         1.4222    -6.5315    92.6789 H          1           0.4404
     52 H23        -1.3132    -5.4189    91.8531 H          1           0.1227
     53 H24        -1.7383    -6.7822    89.8512 H          1           0.1373
     54 H25        -1.5039    -9.2289    89.9504 H          1           0.1387
     55 H26        -0.8419   -10.3281    92.0490 H          1           0.1398
     56 H27        -0.4007    -8.9849    94.0610 H          1           0.1354
     57 H28         2.2595    -4.2917    96.8100 H          1           0.2256
@<TRIPOS>BOND
     1    1    2 1
     2    1   34 1
     3    1   35 1
     4    1   36 1
     5    2   33 1
     6    2    3 2
     7    3    4 1
     8    3   22 1
     9    4    5 1
    10    4   37 1
    11    5    6 1
    12    5   13 1
    13    5   38 1
    14    6    7 1
    15    6   39 1
    16    6   40 1
    17    7    8 1
    18    7   41 1
    19    7   42 1
    20    8    9 1
    21    8   43 1
    22    8   44 1
    23    9   10 1
    24    9   11 1
    25    9   12 1
    26   13   14 2
    27   13   15 am
    28   15   16 1
    29   15   45 1
    30   16   21 ar
    31   16   17 ar
    32   17   18 ar
    33   17   46 1
    34   18   19 ar
    35   18   47 1
    36   19   20 ar
    37   19   48 1
    38   20   21 ar
    39   20   49 1
    40   21   50 1
    41   22   23 1
    42   22   51 1
    43   23   24 2
    44   23   31 1
    45   24   25 1
    46   25   30 ar
    47   25   26 ar
    48   26   27 ar
    49   26   52 1
    50   27   28 ar
    51   27   53 1
    52   28   29 ar
    53   28   54 1
    54   29   30 ar
    55   29   55 1
    56   30   56 1
    57   31   32 1
    58   31   33 2
    59   33   57 1
##########                 Name:              T531858
##########          Protonation:                   15
##########               SMILES:   CC1(NC(=[NH2+])NC(=[NH2+])N1OCc2cccc3c2ccc4c3cccc4)C
##########            Long Name:   ene-6,6-dimethyl-1-(1-phenanthrylmethoxy)-1,3,5-triazinan-2-ylidene]ammonium
##########          FlexRecCode: 1
##########               Number:                  220
##########   Ligand Source File: /raidb/db2/rgc/tcams/tcams-0000875.db2.gz
##########           GlobalRank: 51
##########                 Rank:                    1
##########               Setnum:                   44
##########             Matchnum:                 8285
##########                Cloud:                    1
##########        Electrostatic:           -65.591148
##########        Van der Waals:           -24.480988
##########  Ligand Polar Desolv:            23.833998
########## Ligand Apolar Desolv:            -3.940010
##########      Internal Energy:             0.000000
##########      Receptor Energy: 0.0
########## Receptor Desolvation:             0.000000
########## Receptor Hydrophobic:             0.000000
##########         Total Energy: -70.18
##########        Ligand Charge:             2.000000
##########            Arbitrary:    +999.9990
##########     heavy atom count:   26
##########           pose count:    1
##########        Ligand Energy:             0.000000
# num electro vdwattr vdwrepu polsolv apolsol rdesolv rhydroe totalscore fullpol fullapo
#   1    1.64   -0.26    0.01   -1.30   -0.03    0.00    0.00       0.05   -8.51   -0.18
#   2   -4.93   -0.35    0.02    3.25   -0.07    0.00    0.00      -2.08   18.52   -0.38
#   3   -0.50   -1.68    2.54   -1.86   -0.04    0.00    0.00      -1.54   -7.06   -0.16
#   4   14.60   -0.66    0.02   -8.49    0.39    0.00    0.00       5.86  -32.96    1.52
#   5  -21.95   -1.32    0.19   13.47   -1.59    0.00    0.00     -11.21   38.31   -4.53
#   6   17.91   -2.94    1.77  -13.88    0.39    0.00    0.00       3.24  -32.00    0.89
#   7  -11.50   -0.03    0.00    8.01    0.20    0.00    0.00      -3.33   23.99    0.60
#   8  -13.40   -0.15    0.05   12.00    0.29    0.00    0.00      -1.21   24.85    0.60
#   9   28.42   -2.73    1.84  -11.99    0.43    0.00    0.00      15.97  -31.91    1.15
#  10  -25.88   -1.59    0.80    9.80   -1.16    0.00    0.00     -18.03   36.97   -4.37
#  11   25.31   -2.56    2.03   -9.25    0.26    0.00    0.00      15.79  -31.51    0.89
#  12  -25.05   -0.14    0.02    8.73    0.21    0.00    0.00     -16.23   24.61    0.60
#  13  -11.76   -0.01    0.00    2.99    0.06    0.00    0.00      -8.72   21.97    0.45
#  14    8.81   -0.53    0.02   -4.18    0.17    0.00    0.00       4.30  -21.79    0.87
#  15    0.75   -0.45    0.03   -0.71    0.07    0.00    0.00      -0.31   -3.75    0.37
#  16   -1.13   -0.49    0.05    0.46   -0.02    0.00    0.00      -1.14    1.97   -0.10
#  17    2.26   -1.33    0.37   -0.31   -0.12    0.00    0.00       0.88   -1.07   -0.41
#  18    0.30   -1.60    0.65   -0.44   -0.12    0.00    0.00      -1.20   -1.48   -0.40
#  19    1.15   -1.22    0.35   -0.42   -0.12    0.00    0.00      -0.27   -1.57   -0.44
#  20    0.41   -1.12    0.14   -1.00   -0.15    0.00    0.00      -1.72   -3.01   -0.45
#  21    0.53   -1.18    0.10   -0.41   -0.16    0.00    0.00      -1.12   -1.04   -0.40
#  22    0.79   -1.45    0.12   -0.87   -0.25    0.00    0.00      -1.66   -1.59   -0.46
#  23    0.89   -2.23    0.65   -0.93   -0.27    0.00    0.00      -1.89   -1.63   -0.47
#  24    1.29   -2.76    1.47   -0.88   -0.26    0.00    0.00      -1.13   -1.59   -0.47
#  25    1.68   -1.89    0.36   -0.74   -0.23    0.00    0.00      -0.82   -1.40   -0.44
#  26    0.41   -1.44    0.20   -0.48   -0.17    0.00    0.00      -1.48   -1.19   -0.41
#  27    0.43   -1.75    0.55   -0.52   -0.15    0.00    0.00      -1.43   -1.45   -0.41
#  28    1.42   -1.99    0.53   -1.17   -0.19    0.00    0.00      -1.40   -2.70   -0.44
#  29    2.95   -1.96    0.48   -1.09   -0.21    0.00    0.00       0.17   -2.40   -0.47
#  30    2.70   -1.69    0.49   -0.95   -0.17    0.00    0.00       0.38   -2.47   -0.44
#  31   -0.88   -0.08    0.00    0.28   -0.02    0.00    0.00      -0.70    3.73   -0.27
#  32   -1.33   -0.10    0.01    0.40   -0.03    0.00    0.00      -1.05    4.29   -0.28
#  33   -0.29   -0.06    0.00    0.28   -0.01    0.00    0.00      -0.08    5.35   -0.26
#  34    0.59   -0.70    1.45    0.55   -0.06    0.00    0.00       1.83    2.56   -0.27
#  35   -0.26   -0.38    0.23    0.61   -0.07    0.00    0.00       0.13    2.49   -0.28
#  36    1.05   -0.90    1.67    0.94   -0.07    0.00    0.00       2.70    4.00   -0.28
#  37   -9.81   -0.01    0.00    2.77    0.07    0.00    0.00      -6.98   21.86    0.58
#  38  -28.94   -0.12    0.02   11.16    0.25    0.00    0.00     -17.63   26.57    0.59
#  39   -1.42   -0.12    0.01    0.58   -0.03    0.00    0.00      -0.97    5.58   -0.27
#  40   -2.26   -0.23    0.06    1.28   -0.04    0.00    0.00      -1.19    6.72   -0.22
#  41   -0.79   -0.15    0.01    1.06   -0.03    0.00    0.00       0.10    7.74   -0.24
#  42   -1.05   -0.20    0.01    0.75   -0.06    0.00    0.00      -0.54    3.54   -0.28
#  43   -1.18   -0.30    0.02    1.01   -0.12    0.00    0.00      -0.58    2.30   -0.28
#  44   -0.63   -0.60    0.18    0.79   -0.16    0.00    0.00      -0.43    1.36   -0.28
#  45   -2.55   -0.94    0.79    0.64   -0.16    0.00    0.00      -2.22    1.14   -0.28
#  46   -2.54   -0.39    0.04    0.66   -0.11    0.00    0.00      -2.34    1.31   -0.22
#  47   -2.49   -0.45    0.11    0.40   -0.09    0.00    0.00      -2.51    1.01   -0.22
#  48   -3.69   -0.64    0.55    1.24   -0.14    0.00    0.00      -2.67    2.53   -0.28
#  49   -5.66   -0.67    1.05    1.58   -0.07    0.00    0.00      -3.76    5.59   -0.24

@<TRIPOS>MOLECULE
          T531858        15
   49    52     0     0     0



@<TRIPOS>ATOM
      1 C1          1.7922    -7.1648    92.2167 C.3        1          -0.1925
      2 C2          2.8566    -7.1487    93.3159 C.3        1           0.4029
      3 C3          2.7479    -8.4189    94.1618 C.3        1          -0.1749
      4 N1          2.6756    -5.9603    94.1699 N.pl3      1          -0.7057
      5 C4          3.0708    -4.7379    93.6447 C.cat      1           0.7709
      6 N2          2.3370    -3.6684    93.7637 N.pl3      1          -0.6666
      7 H1          1.4878    -3.7124    94.2304 H          1           0.4687
      8 H2          2.6397    -2.8279    93.3860 H          1           0.4605
      9 N3          4.2967    -4.7194    92.9820 N.pl3      1          -0.6703
     10 C5          4.5836    -5.8340    92.1958 C.cat      1           0.7644
     11 N4          5.1796    -5.7273    91.0425 N.pl3      1          -0.6714
     12 H3          5.4370    -4.8537    90.7085 H          1           0.4602
     13 H4          5.3661    -6.5216    90.5177 H          1           0.4609
     14 N5          4.1988    -7.0638    92.7112 N.pl3      1          -0.4868
     15 O1          5.0581    -8.1881    92.6590 O.3        1          -0.0634
     16 C6          6.4482    -7.8597    92.6993 C.3        1           0.0589
     17 C7          6.8586    -7.5856    94.1233 C.ar       1          -0.1109
     18 C8          7.3282    -8.6292    94.9334 C.ar       1          -0.0237
     19 C9          7.4262    -9.9497    94.4362 C.ar       1          -0.1488
     20 C10         7.8772   -10.9597    95.2074 C.ar       1          -0.0584
     21 C11         8.2720   -10.7442    96.5483 C.ar       1          -0.0638
     22 C12         8.7397   -11.8012    97.3421 C.ar       1          -0.0965
     23 C13         9.1141   -11.5648    98.6322 C.ar       1          -0.1077
     24 C14         9.0387   -10.2874    99.1750 C.ar       1          -0.0936
     25 C15         8.5872    -9.2370    98.4278 C.ar       1          -0.1109
     26 C16         8.1974    -9.4470    97.1038 C.ar       1          -0.0357
     27 C17         7.7077    -8.3491    96.2653 C.ar       1          -0.0303
     28 C18         7.6109    -7.0446    96.7534 C.ar       1          -0.0767
     29 C19         7.1499    -6.0499    95.9390 C.ar       1          -0.1171
     30 C20         6.7796    -6.3205    94.6269 C.ar       1          -0.0894
     31 H5          0.8030    -7.2278    92.6700 H          1           0.1131
     32 H6          1.8646    -6.2507    91.6276 H          1           0.1249
     33 H7          1.9510    -8.0276    91.5698 H          1           0.0698
     34 H8          3.5083    -8.4016    94.9426 H          1           0.1117
     35 H9          1.7593    -8.4679    94.6184 H          1           0.1013
     36 H10         2.8986    -9.2922    93.5271 H          1           0.1157
     37 H11         2.2973    -6.0299    95.0603 H          1           0.4665
     38 H12         4.9137    -3.9754    93.0633 H          1           0.4810
     39 H13         7.0301    -8.6939    92.3076 H          1           0.1028
     40 H14         6.6298    -6.9730    92.0919 H          1           0.0761
     41 H15         7.1332   -10.1536    93.4170 H          1           0.1173
     42 H16         7.9378   -11.9549    94.7922 H          1           0.1326
     43 H17         8.8028   -12.7989    96.9336 H          1           0.1342
     44 H18         9.4738   -12.3815    99.2405 H          1           0.1337
     45 H19         9.3403   -10.1237   100.1991 H          1           0.1345
     46 H20         8.5322    -8.2485    98.8593 H          1           0.1323
     47 H21         7.8989    -6.8233    97.7706 H          1           0.1386
     48 H22         7.0752    -5.0413    96.3178 H          1           0.1358
     49 H23         6.4212    -5.5185    93.9986 H          1           0.1259
@<TRIPOS>BOND
     1    1    2 1
     2    1   31 1
     3    1   32 1
     4    1   33 1
     5    2   14 1
     6    2    3 1
     7    2    4 1
     8    3   34 1
     9    3   35 1
    10    3   36 1
    11    4    5 1
    12    4   37 1
    13    5    6 2
    14    5    9 1
    15    6    7 1
    16    6    8 1
    17    9   10 1
    18    9   38 1
    19   10   11 2
    20   10   14 1
    21   11   12 1
    22   11   13 1
    23   14   15 1
    24   15   16 1
    25   16   17 1
    26   16   39 1
    27   16   40 1
    28   17   30 ar
    29   17   18 ar
    30   18   27 ar
    31   18   19 ar
    32   19   20 ar
    33   19   41 1
    34   20   21 ar
    35   20   42 1
    36   21   26 ar
    37   21   22 ar
    38   22   23 ar
    39   22   43 1
    40   23   24 ar
    41   23   44 1
    42   24   25 ar
    43   24   45 1
    44   25   26 ar
    45   25   46 1
    46   26   27 ar
    47   27   28 ar
    48   28   29 ar
    49   28   47 1
    50   29   30 ar
    51   29   48 1
    52   30   49 1
##########                 Name:              T541876
##########          Protonation:                   93
##########               SMILES:   c1cc(cc(c1)C(=O)NCCC[NH+]2CC[C@@H](CC2)NC(=O)/C=C\c3cc(c(cc3)Cl)Cl)Cl
##########            Long Name:   (3,4-dichlorophenyl)prop-2-enoyl]amino]piperidin-1-ium-1-yl]propyl]benzamide
##########          FlexRecCode: 1
##########               Number:                  270
##########   Ligand Source File: /raidb/db2/rgc/tcams/tcams-0002155.db2.gz
##########           GlobalRank: 52
##########                 Rank:                    1
##########               Setnum:                   88
##########             Matchnum:                 2170
##########                Cloud:                    1
##########        Electrostatic:           -48.829082
##########        Van der Waals:           -26.600161
##########  Ligand Polar Desolv:             8.984079
########## Ligand Apolar Desolv:            -3.690028
##########      Internal Energy:             0.000000
##########      Receptor Energy: 0.0
########## Receptor Desolvation:             0.000000
########## Receptor Hydrophobic:             0.000000
##########         Total Energy: -70.14
##########        Ligand Charge:             1.000000
##########            Arbitrary:    +999.9990
##########     heavy atom count:   32
##########           pose count:    1
##########        Ligand Energy:             0.000000
# num electro vdwattr vdwrepu polsolv apolsol rdesolv rhydroe totalscore fullpol fullapo
#   1    0.41   -3.47    0.55   -0.39   -0.58    0.00    0.00      -3.47   -0.67   -0.99
#   2    0.40   -1.80    0.57   -0.33   -0.15    0.00    0.00      -1.30   -0.67   -0.30
#   3    1.09   -2.03    0.49   -0.49   -0.25    0.00    0.00      -1.18   -0.92   -0.46
#   4    2.07   -2.39    0.50   -0.59   -0.27    0.00    0.00      -0.69   -1.03   -0.47
#   5    0.81   -1.96    0.31   -0.40   -0.25    0.00    0.00      -1.49   -0.73   -0.46
#   6    1.25   -2.14    0.75   -0.64   -0.18    0.00    0.00      -0.96   -1.45   -0.41
#   7    0.50   -2.30    1.06   -0.28   -0.18    0.00    0.00      -1.19   -0.67   -0.43
#   8   -3.73   -2.24    0.73    2.41   -0.27    0.00    0.00      -3.10    5.83   -0.65
#   9   -2.59   -5.94   10.21   -1.38    0.17    0.00    0.00       0.48   -3.22    0.40
#  10   10.41   -1.32    0.12   -4.93    0.92    0.00    0.00       5.20  -12.41    2.31
#  11   -2.01   -0.76    0.05    0.78   -0.16    0.00    0.00      -2.09    2.10   -0.42
#  12    3.91   -0.54    0.02   -1.31   -0.07    0.00    0.00       2.01   -4.43   -0.22
#  13    0.12   -0.45    0.03    0.08   -0.08    0.00    0.00      -0.30    0.36   -0.35
#  14   11.97   -1.03    0.49   -2.89    0.06    0.00    0.00       8.60  -12.04    0.27
#  15  -20.94   -0.08    0.01    4.25    0.13    0.00    0.00     -16.62   17.18    0.54
#  16    0.17   -0.47    0.04    0.00   -0.08    0.00    0.00      -0.33    0.00   -0.37
#  17    4.11   -0.98    0.26   -1.20   -0.07    0.00    0.00       2.12   -4.09   -0.24
#  18   -2.97   -0.56    0.07    0.67   -0.06    0.00    0.00      -2.85    2.86   -0.24
#  19    4.95   -0.98    0.41   -1.00   -0.06    0.00    0.00       3.33   -3.89   -0.24
#  20    0.07   -0.60    0.13    0.16   -0.09    0.00    0.00      -0.34    0.69   -0.38
#  21   10.92   -1.43    0.40   -4.14    0.58    0.00    0.00       6.33  -14.66    2.07
#  22   -4.46   -0.66    0.05    1.68   -0.12    0.00    0.00      -3.51    8.04   -0.58
#  23    3.60   -0.26    0.00   -0.81    0.04    0.00    0.00       2.57   -6.45    0.29
#  24    1.02   -1.17    0.18   -0.80   -0.13    0.00    0.00      -0.91   -2.74   -0.45
#  25    0.00   -1.75    0.59   -0.36   -0.16    0.00    0.00      -1.68   -0.98   -0.44
#  26    1.43   -1.09    0.11   -0.09   -0.11    0.00    0.00       0.25   -0.25   -0.30
#  27    1.17   -1.88    0.38   -0.10   -0.13    0.00    0.00      -0.56   -0.23   -0.31
#  28    2.89   -1.83    0.45   -0.32   -0.18    0.00    0.00       1.01   -0.79   -0.46
#  29    0.28   -0.73    0.04   -0.09   -0.08    0.00    0.00      -0.58   -0.32   -0.29
#  30    0.33   -1.37    0.10   -0.09   -0.30    0.00    0.00      -1.33   -0.30   -0.95
#  31    0.34   -0.42    0.01   -0.05   -0.05    0.00    0.00      -0.17   -0.30   -0.30
#  32    0.09   -0.36    0.01   -0.02   -0.07    0.00    0.00      -0.35   -0.27   -0.95
#  33    1.07   -0.68    0.07   -0.16   -0.10    0.00    0.00       0.19   -0.72   -0.45
#  34   -1.91   -0.65    0.85    0.67   -0.13    0.00    0.00      -1.16    1.44   -0.28
#  35   -3.54   -0.72    0.21    0.90   -0.16    0.00    0.00      -3.31    1.56   -0.28
#  36   -2.36   -0.45    0.11    0.32   -0.13    0.00    0.00      -2.50    0.68   -0.27
#  37   -0.17   -0.48    0.12    1.28   -0.08    0.00    0.00       0.68    3.66   -0.22
#  38   -7.14   -0.02    0.00    2.40    0.11    0.00    0.00      -4.66    9.53    0.43
#  39   -0.68   -0.28    0.06    0.26   -0.07    0.00    0.00      -0.72    1.07   -0.28
#  40   -1.70   -0.32    0.04    0.36   -0.09    0.00    0.00      -1.72    1.08   -0.28
#  41   -2.29   -0.13    0.00    0.48   -0.02    0.00    0.00      -1.97    4.35   -0.21
#  42   -3.07   -0.23    0.02    1.00   -0.06    0.00    0.00      -2.35    4.38   -0.28
#  43   -2.58   -0.13    0.01    0.69   -0.04    0.00    0.00      -2.06    5.19   -0.28
#  44   -1.16   -0.15    0.02    0.57   -0.03    0.00    0.00      -0.75    4.67   -0.28
#  45   -1.69   -0.06    0.00    0.26   -0.02    0.00    0.00      -1.51    4.34   -0.28
#  46   -3.05   -0.13    0.01    0.91   -0.03    0.00    0.00      -2.29    6.52   -0.22
#  47   -1.53   -0.21    0.03    0.58   -0.06    0.00    0.00      -1.19    2.66   -0.28
#  48   -4.51   -1.17    2.35    1.65   -0.11    0.00    0.00      -1.79    4.35   -0.28
#  49   -1.28   -0.05    0.00    0.06   -0.01    0.00    0.00      -1.29    1.09   -0.26
#  50   -2.66   -0.12    0.01    0.06   -0.04    0.00    0.00      -2.75    0.46   -0.28
#  51   -4.38   -1.46    4.14    1.10   -0.09    0.00    0.00      -0.68    3.33   -0.28
#  52   -3.56   -0.26    0.06    1.15   -0.06    0.00    0.00      -2.68    5.15   -0.28
#  53   -2.00   -0.07    0.00    0.25   -0.02    0.00    0.00      -1.83    3.76   -0.28
#  54  -12.22   -0.08    0.01    3.49    0.20    0.00    0.00      -8.60   10.37    0.58
#  55   -0.55   -0.23    0.02    0.85   -0.06    0.00    0.00       0.04    3.94   -0.28
#  56   -3.39   -0.61    0.62    0.84   -0.09    0.00    0.00      -2.63    2.56   -0.28
#  57   -4.96   -0.67    0.35    0.90   -0.12    0.00    0.00      -4.50    1.92   -0.25
#  58   -3.90   -0.65    0.27    0.62   -0.12    0.00    0.00      -3.78    1.40   -0.28
#  59   -1.24   -0.17    0.05    0.16   -0.04    0.00    0.00      -1.23    1.22   -0.28

@<TRIPOS>MOLECULE
          T541876        93
   59    61     0     0     0



@<TRIPOS>ATOM
      1 Cl1         8.9275   -12.4031    97.6463 Cl         1          -0.0555
      2 C1          8.3969   -10.7758    97.9369 C.ar       1          -0.0440
      3 C2          9.1702    -9.9238    98.7074 C.ar       1          -0.0775
      4 C3          8.7544    -8.6258    98.9430 C.ar       1          -0.1080
      5 C4          7.5651    -8.1716    98.4109 C.ar       1          -0.0517
      6 C5          6.7806    -9.0246    97.6334 C.ar       1          -0.1323
      7 C6          7.2075   -10.3318    97.3944 C.ar       1          -0.0803
      8 C7          5.5050    -8.5439    97.0607 C.2        1           0.5680
      9 O1          4.6115    -9.3321    96.8203 O.2        1          -0.5195
     10 N1          5.3329    -7.2317    96.8053 N.am       1          -0.7342
     11 C8          4.0691    -6.7557    96.2378 C.3        1           0.1237
     12 C9          4.3371    -6.0790    94.8920 C.3        1          -0.1642
     13 C10         4.9793    -7.0848    93.9344 C.3        1          -0.0062
     14 N2          5.2366    -6.4350    92.6423 N.4        1          -0.3838
     15 H1          5.5707    -5.4962    92.7998 H          1           0.4232
     16 C11         3.9928    -6.3863    91.8644 C.3        1          -0.0075
     17 C12         4.2366    -5.6387    90.5518 C.3        1          -0.1552
     18 C13         5.3154    -6.3694    89.7471 C.3        1           0.1371
     19 C14         6.5848    -6.4799    90.5966 C.3        1          -0.1605
     20 C15         6.2528    -7.1973    91.9068 C.3        1          -0.0026
     21 N3          5.6079    -5.6177    88.5244 N.am       1          -0.7280
     22 C16         6.0166    -6.2665    87.4159 C.2        1           0.5466
     23 O2          6.1425    -7.4767    87.4310 O.2        1          -0.5168
     24 C17         6.3090    -5.5152    86.1940 C.2        1          -0.2239
     25 C18         7.5546    -5.0495    85.9707 C.2        1          -0.0002
     26 C19         8.6719    -5.5026    86.8144 C.ar       1          -0.0603
     27 C20         9.4074    -4.5773    87.5627 C.ar       1          -0.0357
     28 C21        10.4525    -5.0082    88.3512 C.ar       1          -0.1070
     29 C22        10.7758    -6.3544    88.4043 C.ar       1          -0.0185
     30 Cl2        12.0933    -6.8878    89.4009 Cl         1          -0.0440
     31 C23        10.0515    -7.2774    87.6656 C.ar       1          -0.0380
     32 Cl3        10.4646    -8.9619    87.7399 Cl         1          -0.0428
     33 C24         8.9996    -6.8605    86.8762 C.ar       1          -0.0773
     34 H2         10.1018   -10.2744    99.1266 H          1           0.1440
     35 H3          9.3619    -7.9664    99.5451 H          1           0.1463
     36 H4          7.2417    -7.1579    98.5961 H          1           0.1458
     37 H5          6.6070   -10.9954    96.7899 H          1           0.1325
     38 H6          6.0459    -6.6029    96.9970 H          1           0.4028
     39 H7          3.3951    -7.5999    96.0922 H          1           0.0817
     40 H8          3.6115    -6.0390    96.9200 H          1           0.0816
     41 H9          3.3967    -5.7248    94.4697 H          1           0.0955
     42 H10         5.0109    -5.2347    95.0377 H          1           0.0961
     43 H11         5.9197    -7.4391    94.3566 H          1           0.1381
     44 H12         4.3055    -7.9291    93.7888 H          1           0.1365
     45 H13         3.6605    -7.4015    91.6475 H          1           0.1344
     46 H14         3.2251    -5.8688    92.4397 H          1           0.1370
     47 H15         3.3123    -5.6051    89.9750 H          1           0.1199
     48 H16         4.5688    -4.6232    90.7676 H          1           0.0947
     49 H17         4.9627    -7.3676    89.4873 H          1           0.1059
     50 H18         7.3390    -7.0477    90.0517 H          1           0.1184
     51 H19         6.9657    -5.4818    90.8134 H          1           0.0906
     52 H20         7.1547    -7.2790    92.5133 H          1           0.1357
     53 H21         5.8709    -8.1949    91.6889 H          1           0.1335
     54 H22         5.5076    -4.6529    88.5124 H          1           0.4069
     55 H23         5.5271    -5.3342    85.4713 H          1           0.1407
     56 H24         7.7321    -4.3437    85.1727 H          1           0.1484
     57 H25         9.1571    -3.5274    87.5222 H          1           0.1261
     58 H26        11.0211    -4.2945    88.9289 H          1           0.1405
     59 H27         8.4330    -7.5808    86.3046 H          1           0.1437
@<TRIPOS>BOND
     1    1    2 1
     2    2    7 ar
     3    2    3 ar
     4    3    4 ar
     5    3   34 1
     6    4    5 ar
     7    4   35 1
     8    5    6 ar
     9    5   36 1
    10    6    7 ar
    11    6    8 1
    12    7   37 1
    13    8    9 2
    14    8   10 am
    15   10   11 1
    16   10   38 1
    17   11   12 1
    18   11   39 1
    19   11   40 1
    20   12   13 1
    21   12   41 1
    22   12   42 1
    23   13   14 1
    24   13   43 1
    25   13   44 1
    26   14   15 1
    27   14   20 1
    28   14   16 1
    29   16   17 1
    30   16   45 1
    31   16   46 1
    32   17   18 1
    33   17   47 1
    34   17   48 1
    35   18   19 1
    36   18   21 1
    37   18   49 1
    38   19   20 1
    39   19   50 1
    40   19   51 1
    41   20   52 1
    42   20   53 1
    43   21   22 am
    44   21   54 1
    45   22   23 2
    46   22   24 1
    47   24   25 2
    48   24   55 1
    49   25   26 1
    50   25   56 1
    51   26   33 ar
    52   26   27 ar
    53   27   28 ar
    54   27   57 1
    55   28   29 ar
    56   28   58 1
    57   29   30 1
    58   29   31 ar
    59   31   32 1
    60   31   33 ar
    61   33   59 1
##########                 Name:              T529677
##########          Protonation:                   93
##########               SMILES:   1ccc2c(c1)[nH]c(=[NH+]C[C@@H]3CCC[C@H]3[NH2+]Cc4cc5c([nH]4)cc(cc5Cl)Cl)[nH]2
##########            Long Name:   R,2S)-2-(1,3-dihydrobenzimidazol-2-ylideneammoniomethyl)cyclopentyl]ammonium
##########          FlexRecCode: 1
##########               Number:                   13
##########   Ligand Source File: /raidb/db2/rgc/tcams/tcams-0000569.db2.gz
##########           GlobalRank: 53
##########                 Rank:                    1
##########               Setnum:                   63
##########             Matchnum:                 2911
##########                Cloud:                    1
##########        Electrostatic:           -41.669796
##########        Van der Waals:           -33.209602
##########  Ligand Polar Desolv:             9.682613
########## Ligand Apolar Desolv:            -4.855392
##########      Internal Energy:             0.000000
##########      Receptor Energy: 0.0
########## Receptor Desolvation:             0.000000
########## Receptor Hydrophobic:             0.000000
##########         Total Energy: -70.05
##########        Ligand Charge:             2.000000
##########            Arbitrary:    +999.9990
##########     heavy atom count:   29
##########           pose count:    1
##########        Ligand Energy:             0.000000
# num electro vdwattr vdwrepu polsolv apolsol rdesolv rhydroe totalscore fullpol fullapo
#   1    0.17   -3.78    0.72   -0.90   -0.58    0.00    0.00      -4.37   -1.53   -0.99
#   2   -0.16   -1.64    0.39   -0.48   -0.14    0.00    0.00      -2.03   -1.00   -0.30
#   3    1.59   -2.04    0.70   -1.34   -0.23    0.00    0.00      -1.33   -2.62   -0.45
#   4   -0.52   -1.92    0.30   -0.04   -0.16    0.00    0.00      -2.34   -0.08   -0.30
#   5    0.85   -8.02    4.37   -0.87   -0.64    0.00    0.00      -4.31   -1.35   -0.99
#   6    1.64   -1.44    0.14   -1.42   -0.20    0.00    0.00      -1.27   -3.11   -0.43
#   7    1.78   -1.50    0.29   -2.67   -0.22    0.00    0.00      -2.32   -6.12   -0.51
#   8    0.28   -0.97    0.06    1.56   -0.25    0.00    0.00       0.68    4.50   -0.71
#   9   -1.57   -0.57    0.03    1.27   -0.13    0.00    0.00      -0.97    4.19   -0.43
#  10    8.70   -0.54    0.03   -5.47    0.13    0.00    0.00       2.85  -25.65    0.59
#  11   -7.51   -0.01    0.00    2.77    0.06    0.00    0.00      -4.69   26.35    0.56
#  12   -2.71   -0.02    0.00    3.40    0.08    0.00    0.00       0.76   23.82    0.56
#  13   -0.65   -0.44    0.02    0.90   -0.06    0.00    0.00      -0.22    3.88   -0.25
#  14    2.86   -0.43    0.01   -1.64   -0.06    0.00    0.00       0.74   -6.49   -0.24
#  15    1.77   -0.36    0.01   -1.30   -0.06    0.00    0.00       0.06   -5.95   -0.29
#  16    1.29   -0.39    0.04   -1.05   -0.05    0.00    0.00      -0.16   -5.53   -0.26
#  17    2.04   -0.32    0.01   -0.87   -0.03    0.00    0.00       0.83   -4.63   -0.16
#  18   -2.29   -0.68    0.11    0.73   -0.09    0.00    0.00      -2.21    2.85   -0.36
#  19   16.94   -0.89    0.17   -5.84    0.34    0.00    0.00      10.72  -27.45    1.60
#  20   -9.15   -0.01    0.00    1.93    0.05    0.00    0.00      -7.18   21.19    0.57
#  21  -19.56   -1.37    0.48    7.15   -1.25    0.00    0.00     -14.55   28.41   -4.95
#  22   19.82   -2.58    1.31   -7.17    0.38    0.00    0.00      11.75  -21.99    1.16
#  23   -2.40   -1.86    0.63    0.97   -0.26    0.00    0.00      -2.92    2.90   -0.77
#  24    2.87   -2.17    0.65   -1.14   -0.20    0.00    0.00       0.00   -2.68   -0.48
#  25    2.46   -1.96    0.44   -1.50   -0.21    0.00    0.00      -0.78   -3.42   -0.47
#  26    1.79   -1.22    0.17   -1.19   -0.17    0.00    0.00      -0.63   -3.32   -0.47
#  27    1.55   -0.74    0.06   -0.80   -0.12    0.00    0.00      -0.05   -3.08   -0.48
#  28   -1.93   -1.01    0.19    0.61   -0.20    0.00    0.00      -2.34    2.32   -0.77
#  29   13.64   -0.87    0.11   -5.17    0.29    0.00    0.00       8.01  -21.43    1.21
#  30    4.58   -1.19    0.19   -5.82    0.35    0.00    0.00      -1.89  -18.62    1.12
#  31   -1.18   -1.31    0.14    0.94   -0.28    0.00    0.00      -1.70    2.62   -0.78
#  32    0.73   -1.44    0.19   -0.79   -0.18    0.00    0.00      -1.49   -2.06   -0.46
#  33   -2.34   -0.50    0.18    0.47   -0.13    0.00    0.00      -2.33    1.02   -0.28
#  34   -2.85   -0.78    1.68    2.54   -0.10    0.00    0.00       0.49    7.25   -0.28
#  35   -3.29   -0.19    0.01    1.60   -0.04    0.00    0.00      -1.92    8.68   -0.23
#  36   -5.40   -0.25    0.04    2.57   -0.06    0.00    0.00      -3.10   11.81   -0.28
#  37   -5.33   -0.25    0.04    2.61   -0.06    0.00    0.00      -2.99   12.29   -0.26
#  38   -1.63   -0.13    0.00    0.60   -0.03    0.00    0.00      -1.18    4.99   -0.23
#  39   -2.75   -0.18    0.01    0.68   -0.05    0.00    0.00      -2.29    3.61   -0.28
#  40   -0.74   -0.10    0.00    0.21   -0.03    0.00    0.00      -0.66    2.18   -0.28
#  41   -1.67   -0.13    0.00   -0.03   -0.04    0.00    0.00      -1.86   -0.25   -0.28
#  42   -0.41   -0.07    0.00    0.16   -0.02    0.00    0.00      -0.33    2.39   -0.28
#  43   -0.92   -0.35    0.23    0.55   -0.05    0.00    0.00      -0.54    2.79   -0.27
#  44   -1.10   -0.06    0.00    0.53   -0.02    0.00    0.00      -0.65    8.39   -0.28
#  45   -1.50   -0.13    0.01    1.06   -0.04    0.00    0.00      -0.61    6.65   -0.28
#  46   -3.86   -0.61    0.42    3.19   -0.09    0.00    0.00      -0.96   10.09   -0.28
#  47  -17.15   -0.06    0.00    7.18    0.19    0.00    0.00      -9.84   21.12    0.57
#  48   -5.98   -0.97    1.17    2.12   -0.11    0.00    0.00      -3.76    5.23   -0.28
#  49   -6.65   -0.89    0.95    1.24   -0.12    0.00    0.00      -5.48    2.79   -0.28
#  50   -3.55   -0.32    0.10    0.57   -0.07    0.00    0.00      -3.26    2.38   -0.28
#  51   -1.85   -0.09    0.00    0.33   -0.02    0.00    0.00      -1.63    3.77   -0.28
#  52   -8.73   -0.01    0.00    2.73    0.09    0.00    0.00      -5.91   17.70    0.59
#  53   -1.19   -0.02    0.00    3.16    0.11    0.00    0.00       2.06   16.94    0.59
#  54   -0.50   -0.28    0.03    0.86   -0.07    0.00    0.00       0.04    3.28   -0.28

@<TRIPOS>MOLECULE
          T529677        93
   54    58     0     0     0



@<TRIPOS>ATOM
      1 Cl1         8.8620   -12.5060    97.8165 Cl         1          -0.0238
      2 C1          8.2654   -10.8849    97.6442 C.ar       1           0.0187
      3 C2          8.6739    -9.9029    98.5380 C.ar       1          -0.1193
      4 C3          8.2149    -8.6208    98.4177 C.ar       1           0.0320
      5 Cl2         8.7324    -7.4014    99.5398 Cl         1          -0.0361
      6 C4          7.3283    -8.2951    97.3880 C.ar       1          -0.1214
      7 C5          6.6573    -7.0599    96.9753 C.2        1          -0.1069
      8 C6          5.9130    -7.3585    95.8991 C.2        1          -0.0174
      9 C7          5.0518    -6.3791    95.1440 C.3        1           0.0687
     10 N1          4.3888    -7.0684    94.0289 N.4        1          -0.5115
     11 H1          5.0860    -7.4515    93.4082 H          1           0.4289
     12 H2          3.8129    -7.8144    94.3893 H          1           0.4287
     13 C8          3.5494    -6.1136    93.2927 C.3        1           0.0287
     14 C9          2.1899    -5.9557    93.9958 C.3        1          -0.1451
     15 C10         1.1155    -6.4033    92.9833 C.3        1          -0.1298
     16 C11         1.7929    -6.2162    91.6030 C.3        1          -0.1240
     17 C12         3.2538    -6.6517    91.8775 C.3        1          -0.1268
     18 C13         4.2017    -6.0203    90.8557 C.3        1           0.0943
     19 N2          5.4967    -6.7036    90.9036 N.pl3      1          -0.6544
     20 H3          5.6359    -7.4360    91.5242 H          1           0.4448
     21 C14         6.4637    -6.3265    90.1104 C.cat      1           0.6640
     22 N3          6.3954    -5.3057    89.1967 N.pl3      1          -0.5783
     23 C15         7.6273    -5.2178    88.5497 C.ar       1           0.0768
     24 C16         8.1097    -4.3815    87.5533 C.ar       1          -0.0850
     25 C17         9.4047    -4.5305    87.0962 C.ar       1          -0.0737
     26 C18        10.2232    -5.5116    87.6281 C.ar       1          -0.0732
     27 C19         9.7516    -6.3491    88.6200 C.ar       1          -0.0832
     28 C20         8.4527    -6.2064    89.0861 C.ar       1           0.0803
     29 N4          7.7167    -6.8825    90.0585 N.pl3      1          -0.5763
     30 N5          6.0525    -8.6844    95.5889 N.pl3      1          -0.5831
     31 C21         6.9119    -9.2857    96.4808 C.ar       1           0.1464
     32 C22         7.3953   -10.5832    96.6184 C.ar       1          -0.1233
     33 H4          9.3590   -10.1545    99.3342 H          1           0.1568
     34 H5          6.7448    -6.0926    97.4476 H          1           0.1635
     35 H6          4.2986    -5.9653    95.8145 H          1           0.1465
     36 H7          5.6739    -5.5731    94.7547 H          1           0.1603
     37 H8          4.0514    -5.1483    93.2278 H          1           0.1545
     38 H9          2.1529    -6.5875    94.8834 H          1           0.0919
     39 H10         2.0312    -4.9134    94.2722 H          1           0.1140
     40 H11         0.8546    -7.4498    93.1416 H          1           0.0843
     41 H12         0.2303    -5.7724    93.0625 H          1           0.0979
     42 H13         1.3314    -6.8617    90.8556 H          1           0.0931
     43 H14         1.7530    -5.1726    91.2915 H          1           0.0927
     44 H15         3.3382    -7.7382    91.8571 H          1           0.1165
     45 H16         3.7762    -6.1176    89.8569 H          1           0.1108
     46 H17         4.3387    -4.9649    91.0911 H          1           0.0974
     47 H18         5.6233    -4.7428    89.0293 H          1           0.4531
     48 H19         7.4736    -3.6152    87.1354 H          1           0.1500
     49 H20         9.7796    -3.8792    86.3206 H          1           0.1577
     50 H21        11.2346    -5.6229    87.2659 H          1           0.1580
     51 H22        10.3931    -7.1140    89.0321 H          1           0.1517
     52 H23         8.0350    -7.6200    90.6024 H          1           0.4587
     53 H24         5.6114    -9.1335    94.8508 H          1           0.4236
     54 H25         7.0870   -11.3525    95.9258 H          1           0.1474
@<TRIPOS>BOND
     1    1    2 1
     2    2   32 ar
     3    2    3 ar
     4    3    4 ar
     5    3   33 1
     6    4    5 1
     7    4    6 ar
     8    6   31 ar
     9    6    7 1
    10    7    8 2
    11    7   34 1
    12    8    9 1
    13    8   30 1
    14    9   10 1
    15    9   35 1
    16    9   36 1
    17   10   11 1
    18   10   12 1
    19   10   13 1
    20   13   17 1
    21   13   14 1
    22   13   37 1
    23   14   15 1
    24   14   38 1
    25   14   39 1
    26   15   16 1
    27   15   40 1
    28   15   41 1
    29   16   17 1
    30   16   42 1
    31   16   43 1
    32   17   18 1
    33   17   44 1
    34   18   19 1
    35   18   45 1
    36   18   46 1
    37   19   20 1
    38   19   21 2
    39   21   29 1
    40   21   22 1
    41   22   23 1
    42   22   47 1
    43   23   28 ar
    44   23   24 ar
    45   24   25 ar
    46   24   48 1
    47   25   26 ar
    48   25   49 1
    49   26   27 ar
    50   26   50 1
    51   27   28 ar
    52   27   51 1
    53   28   29 1
    54   29   52 1
    55   30   31 1
    56   30   53 1
    57   31   32 ar
    58   32   54 1
##########                 Name:              T535923
##########          Protonation:                   99
##########               SMILES:   CCCCc1ccc(cc1)CC[NH2+]CCCCCC[NH2+]CCc2ccc(c(c2)O)O
##########            Long Name:   -(4-butylphenyl)ethyl-[6-[2-(3,4-dihydroxyphenyl)ethylammonio]hexyl]ammonium
##########          FlexRecCode: 1
##########               Number:                   93
##########   Ligand Source File: /raidb/db2/rgc/tcams/tcams-0001462.db2.gz
##########           GlobalRank: 54
##########                 Rank:                    1
##########               Setnum:                   67
##########             Matchnum:                 2840
##########                Cloud:                    1
##########        Electrostatic:           -53.160519
##########        Van der Waals:           -24.943068
##########  Ligand Polar Desolv:            11.037312
########## Ligand Apolar Desolv:            -2.920325
##########      Internal Energy:             0.000000
##########      Receptor Energy: 0.0
########## Receptor Desolvation:             0.000000
########## Receptor Hydrophobic:             0.000000
##########         Total Energy: -69.99
##########        Ligand Charge:             2.000000
##########            Arbitrary:    +999.9990
##########     heavy atom count:   30
##########           pose count:    1
##########        Ligand Energy:             0.000000
# num electro vdwattr vdwrepu polsolv apolsol rdesolv rhydroe totalscore fullpol fullapo
#   1    0.89   -1.14    0.22   -0.75   -0.08    0.00    0.00      -0.85   -1.70   -0.19
#   2    0.82   -0.89    0.09   -0.59   -0.10    0.00    0.00      -0.67   -1.45   -0.25
#   3    0.69   -0.87    0.10   -0.39   -0.08    0.00    0.00      -0.55   -1.10   -0.22
#   4    1.13   -0.88    0.08   -0.42   -0.09    0.00    0.00      -0.19   -1.04   -0.23
#   5    0.87   -1.19    0.10   -0.77   -0.14    0.00    0.00      -1.13   -1.93   -0.36
#   6    1.61   -1.54    0.20   -1.17   -0.19    0.00    0.00      -1.09   -2.81   -0.46
#   7    2.20   -1.67    0.33   -1.08   -0.19    0.00    0.00      -0.41   -2.65   -0.46
#   8    3.50   -1.74    0.37   -0.79   -0.16    0.00    0.00       1.19   -1.80   -0.36
#   9    3.39   -1.70    0.40   -1.80   -0.12    0.00    0.00       0.17   -3.64   -0.25
#  10    0.21   -1.12    0.19    0.47   -0.16    0.00    0.00      -0.41    1.14   -0.40
#  11   21.99   -2.41    2.29   -7.67    0.26    0.00    0.00      14.46  -21.34    0.73
#  12  -28.90   -0.22    0.08    8.73    0.23    0.00    0.00     -20.08   21.36    0.57
#  13  -16.24   -0.02    0.00    4.08    0.11    0.00    0.00     -12.08   21.35    0.57
#  14    0.30   -1.17    0.36    0.12   -0.12    0.00    0.00      -0.52    0.38   -0.40
#  15    4.58   -1.12    0.42   -1.78   -0.07    0.00    0.00       2.03   -6.09   -0.24
#  16    2.89   -0.50    0.08   -1.00   -0.04    0.00    0.00       1.43   -5.01   -0.22
#  17    2.24   -0.31    0.02   -0.85   -0.04    0.00    0.00       1.06   -5.00   -0.22
#  18    1.96   -0.22    0.01   -0.87   -0.03    0.00    0.00       0.85   -6.20   -0.24
#  19    0.09   -0.14    0.00    0.04   -0.04    0.00    0.00      -0.05    0.45   -0.40
#  20    2.82   -0.19    0.01   -1.92    0.06    0.00    0.00       0.79  -21.85    0.73
#  21   -2.78   -0.01    0.00    1.80    0.05    0.00    0.00      -0.95   21.59    0.57
#  22   -1.99    0.00    0.00    0.68    0.02    0.00    0.00      -1.30   21.76    0.57
#  23    0.02   -0.09    0.00    0.06   -0.02    0.00    0.00      -0.03    1.11   -0.40
#  24    0.10   -0.13    0.00   -0.30   -0.02    0.00    0.00      -0.34   -3.80   -0.25
#  25    0.00   -0.54    0.07   -0.18   -0.06    0.00    0.00      -0.71   -1.20   -0.36
#  26    0.03   -1.21    0.41   -0.53   -0.11    0.00    0.00      -1.40   -2.31   -0.46
#  27    0.00   -2.72    2.77   -0.95   -0.15    0.00    0.00      -1.05   -2.93   -0.46
#  28    0.39   -2.17    1.00   -0.11   -0.11    0.00    0.00      -1.00   -0.31   -0.31
#  29   -2.79   -2.61    1.09   -2.43    0.36    0.00    0.00      -6.37   -5.46    0.81
#  30    0.38   -1.02    0.17    0.04   -0.09    0.00    0.00      -0.51    0.15   -0.31
#  31   -3.67   -1.40    1.45   -1.89    0.22    0.00    0.00      -5.30   -6.99    0.81
#  32   -0.12   -0.50    0.04   -0.47   -0.08    0.00    0.00      -1.12   -2.80   -0.46
#  33    3.50   -1.80    0.40   -1.20   -0.21    0.00    0.00       0.69   -2.65   -0.46
#  34    2.69   -1.59    0.29   -1.15   -0.19    0.00    0.00       0.05   -2.81   -0.46
#  35   -0.54   -0.35    0.06    0.28   -0.11    0.00    0.00      -0.67    0.69   -0.28
#  36    0.04   -0.88    0.74    0.14   -0.11    0.00    0.00      -0.07    0.35   -0.28
#  37   -0.39   -0.20    0.01    0.15   -0.06    0.00    0.00      -0.49    0.69   -0.28
#  38   -0.33   -0.52    0.26    0.18   -0.10    0.00    0.00      -0.51    0.51   -0.28
#  39   -0.61   -0.21    0.01    0.11   -0.06    0.00    0.00      -0.75    0.51   -0.28
#  40   -0.52   -0.20    0.02    0.14   -0.05    0.00    0.00      -0.61    0.82   -0.28
#  41    0.02   -0.53    0.28    0.26   -0.09    0.00    0.00      -0.06    0.82   -0.28
#  42   -0.89   -0.42    0.12    0.17   -0.09    0.00    0.00      -1.11    0.52   -0.28
#  43   -1.18   -0.34    0.07    0.14   -0.07    0.00    0.00      -1.39    0.52   -0.28
#  44   -1.24   -0.55    0.22    0.57   -0.11    0.00    0.00      -1.11    1.41   -0.28
#  45   -2.71   -0.35    0.05    1.51   -0.10    0.00    0.00      -1.59    4.42   -0.28
#  46   -2.95   -1.02    0.84    2.04   -0.13    0.00    0.00      -1.22    4.56   -0.28
#  47   -3.91   -0.70    0.16    2.47   -0.15    0.00    0.00      -2.13    4.55   -0.28
#  48   -3.33   -0.16    0.01    0.82   -0.04    0.00    0.00      -2.71    5.38   -0.28
#  49   -4.14   -0.68    0.60    2.11   -0.11    0.00    0.00      -2.22    5.40   -0.28
#  50   -2.42   -0.12    0.01    0.74   -0.04    0.00    0.00      -1.83    5.68   -0.28
#  51   -3.56   -0.88    0.95    2.00   -0.10    0.00    0.00      -1.58    5.70   -0.28
#  52   -1.36   -0.16    0.01    0.70   -0.05    0.00    0.00      -0.86    3.84   -0.28
#  53   -4.40   -1.24    2.35    1.31   -0.10    0.00    0.00      -2.07    3.81   -0.28
#  54   -2.59   -0.27    0.11    0.40   -0.05    0.00    0.00      -2.40    2.31   -0.28
#  55   -1.15   -0.06    0.00    0.14   -0.02    0.00    0.00      -1.09    2.34   -0.28
#  56   -0.96   -0.05    0.00    0.11   -0.01    0.00    0.00      -0.91    2.42   -0.28
#  57   -2.02   -0.16    0.02    0.38   -0.05    0.00    0.00      -1.83    2.38   -0.28
#  58   -1.45   -0.14    0.02    0.52   -0.04    0.00    0.00      -1.09    3.74   -0.28
#  59   -0.76   -0.04    0.00    0.14   -0.01    0.00    0.00      -0.67    3.82   -0.28
#  60   -0.85   -0.02    0.00    0.17   -0.01    0.00    0.00      -0.71    5.99   -0.28
#  61   -1.47   -0.05    0.00    0.28   -0.01    0.00    0.00      -1.25    5.86   -0.28
#  62   -0.20   -0.02    0.00    0.13   -0.01    0.00    0.00      -0.09    6.04   -0.28
#  63   -0.31   -0.03    0.00    0.17   -0.01    0.00    0.00      -0.18    5.72   -0.28
#  64   -0.12   -0.04    0.00    0.15   -0.01    0.00    0.00      -0.02    4.62   -0.28
#  65   -0.04   -0.02    0.00    0.12   -0.01    0.00    0.00       0.05    5.14   -0.28
#  66   -0.48   -0.14    0.01    0.78   -0.04    0.00    0.00       0.13    5.48   -0.28
#  67   -0.56   -0.57    0.45    0.55   -0.09    0.00    0.00      -0.23    1.64   -0.28
#  68   -0.16   -0.06    0.00    2.68    0.57    0.00    0.00       3.03    5.79    1.22
#  69    0.65   -0.01    0.00    0.91    0.15    0.00    0.00       1.71    7.25    1.22
#  70    0.03   -0.04    0.00    0.16   -0.01    0.00    0.00       0.14    4.49   -0.28
#  71   -6.00   -0.86    1.53    1.99   -0.13    0.00    0.00      -3.47    4.43   -0.28
#  72   -3.14   -0.81    0.80    0.53   -0.10    0.00    0.00      -2.72    1.42   -0.28

@<TRIPOS>MOLECULE
          T535923        99
   72    73     0     0     0



@<TRIPOS>ATOM
      1 C1          7.4489   -12.1733    95.7857 C.3        1          -0.1550
      2 C2          7.7108   -10.9741    96.6993 C.3        1          -0.1280
      3 C3          6.9300    -9.7624    96.1866 C.3        1          -0.1109
      4 C4          7.1918    -8.5634    97.1002 C.3        1          -0.0936
      5 C5          6.4227    -7.3697    96.5953 C.ar       1          -0.0556
      6 C6          5.1361    -7.1363    97.0436 C.ar       1          -0.1133
      7 C7          4.4308    -6.0414    96.5805 C.ar       1          -0.1052
      8 C8          5.0122    -5.1795    95.6694 C.ar       1          -0.1207
      9 C9          4.2430    -3.9861    95.1642 C.3        1          -0.0980
     10 C10         3.4620    -4.3773    93.9081 C.3        1          -0.0065
     11 N1          4.3982    -4.8313    92.8710 N.4        1          -0.5106
     12 H1          5.0413    -4.0862    92.6488 H          1           0.4289
     13 H2          4.9132    -5.6303    93.2093 H          1           0.4289
     14 C11         3.6484    -5.2070    91.6649 C.3        1          -0.0101
     15 C12         4.6235    -5.6798    90.5848 C.3        1          -0.1517
     16 C13         5.4044    -6.8913    91.0978 C.3        1          -0.1195
     17 C14         6.3794    -7.3642    90.0176 C.3        1          -0.1192
     18 C15         7.1604    -8.5758    90.5305 C.3        1          -0.1522
     19 C16         8.1355    -9.0486    89.4504 C.3        1          -0.0099
     20 N2          8.8853   -10.2118    89.9430 N.4        1          -0.5108
     21 H3          9.4004    -9.9539    90.7714 H          1           0.4295
     22 H4          8.2424   -10.9570    90.1652 H          1           0.4296
     23 C17         9.8215   -10.6658    88.9060 C.3        1          -0.0068
     24 C18        10.6025   -11.8773    89.4189 C.3        1          -0.0990
     25 C19        11.3716   -11.4919    90.6563 C.ar       1          -0.1063
     26 C20        10.7884   -11.6306    91.9021 C.ar       1          -0.1009
     27 C21        11.4900   -11.2790    93.0402 C.ar       1          -0.1260
     28 C22        12.7807   -10.7860    92.9338 C.ar       1           0.1021
     29 O1         13.4724   -10.4401    94.0524 O.3        1          -0.4835
     30 C23        13.3676   -10.6464    91.6799 C.ar       1           0.0883
     31 O2         14.6343   -10.1636    91.5703 O.3        1          -0.4830
     32 C24        12.6609   -11.0057    90.5435 C.ar       1          -0.1220
     33 C25         6.2993    -5.4121    95.2223 C.ar       1          -0.1052
     34 C26         7.0061    -6.5049    95.6883 C.ar       1          -0.1133
     35 H5          8.0052   -13.0366    96.1509 H          1           0.0534
     36 H6          6.3834   -12.4022    95.7830 H          1           0.0587
     37 H7          7.7720   -11.9352    94.7722 H          1           0.0534
     38 H8          7.3877   -11.2122    97.7128 H          1           0.0645
     39 H9          8.7764   -10.7452    96.7018 H          1           0.0645
     40 H10         7.2528    -9.5243    95.1731 H          1           0.0622
     41 H11         5.8643    -9.9913    96.1841 H          1           0.0622
     42 H12         6.8689    -8.8013    98.1137 H          1           0.0786
     43 H13         8.2575    -8.3343    97.1028 H          1           0.0787
     44 H14         4.6819    -7.8097    97.7554 H          1           0.1291
     45 H15         3.4253    -5.8595    96.9302 H          1           0.1231
     46 H16         3.5484    -3.6493    95.9337 H          1           0.0948
     47 H17         4.9377    -3.1812    94.9242 H          1           0.0947
     48 H18         2.7675    -5.1823    94.1480 H          1           0.1335
     49 H19         2.9057    -3.5142    93.5427 H          1           0.1335
     50 H20         2.9538    -6.0119    91.9050 H          1           0.1323
     51 H21         3.0921    -4.3438    91.2994 H          1           0.1323
     52 H22         4.0671    -5.9585    89.6898 H          1           0.0899
     53 H23         5.3181    -4.8748    90.3448 H          1           0.0899
     54 H24         5.9607    -6.6127    91.9927 H          1           0.0790
     55 H25         4.7097    -7.6964    91.3377 H          1           0.0790
     56 H26         5.8230    -7.6430    89.1228 H          1           0.0789
     57 H27         7.0740    -6.5592    89.7777 H          1           0.0789
     58 H28         7.7168    -8.2971    91.4256 H          1           0.0901
     59 H29         6.4659    -9.3807    90.7706 H          1           0.0902
     60 H30         7.5790    -9.3273    88.5556 H          1           0.1326
     61 H31         8.8301    -8.2436    89.2106 H          1           0.1324
     62 H32         9.2651   -10.9445    88.0110 H          1           0.1348
     63 H33        10.5160    -9.8608    88.6659 H          1           0.1338
     64 H34         9.9079   -12.6823    89.6591 H          1           0.0979
     65 H35        11.2972   -12.2141    88.6497 H          1           0.0991
     66 H36         9.7825   -12.0143    91.9864 H          1           0.1325
     67 H37        11.0321   -11.3879    94.0121 H          1           0.1424
     68 H38        12.9819   -10.5731    94.8751 H          1           0.3971
     69 H39        14.9549   -10.1031    90.6600 H          1           0.3939
     70 H40        13.1156   -10.9023    89.5694 H          1           0.1352
     71 H41         6.7538    -4.7385    94.5107 H          1           0.1231
     72 H42         8.0130    -6.6847    95.3413 H          1           0.1291
@<TRIPOS>BOND
     1    1    2 1
     2    1   35 1
     3    1   36 1
     4    1   37 1
     5    2    3 1
     6    2   38 1
     7    2   39 1
     8    3    4 1
     9    3   40 1
    10    3   41 1
    11    4    5 1
    12    4   42 1
    13    4   43 1
    14    5   34 ar
    15    5    6 ar
    16    6    7 ar
    17    6   44 1
    18    7    8 ar
    19    7   45 1
    20    8    9 1
    21    8   33 ar
    22    9   10 1
    23    9   46 1
    24    9   47 1
    25   10   11 1
    26   10   48 1
    27   10   49 1
    28   11   12 1
    29   11   13 1
    30   11   14 1
    31   14   15 1
    32   14   50 1
    33   14   51 1
    34   15   16 1
    35   15   52 1
    36   15   53 1
    37   16   17 1
    38   16   54 1
    39   16   55 1
    40   17   18 1
    41   17   56 1
    42   17   57 1
    43   18   19 1
    44   18   58 1
    45   18   59 1
    46   19   20 1
    47   19   60 1
    48   19   61 1
    49   20   21 1
    50   20   22 1
    51   20   23 1
    52   23   24 1
    53   23   62 1
    54   23   63 1
    55   24   25 1
    56   24   64 1
    57   24   65 1
    58   25   32 ar
    59   25   26 ar
    60   26   27 ar
    61   26   66 1
    62   27   28 ar
    63   27   67 1
    64   28   29 1
    65   28   30 ar
    66   29   68 1
    67   30   31 1
    68   30   32 ar
    69   31   69 1
    70   32   70 1
    71   33   34 ar
    72   33   71 1
    73   34   72 1
##########                 Name:              T542834
##########          Protonation:                   26
##########               SMILES:   c1ccc(cc1)c2ccccc2CNc3[nH+]c(nc(n3)NCCCc4ccc(cc4)O)NC5CC[NH2+]CC5
##########            Long Name:   ]-6-(piperidin-1-ium-4-ylamino)-1,3,5-triazin-5-ium-2-yl]amino]propyl]phenol
##########          FlexRecCode: 1
##########               Number:                   60
##########   Ligand Source File: /raidb/db2/rgc/tcams/tcams-0002388.db2.gz
##########           GlobalRank: 55
##########                 Rank:                    1
##########               Setnum:                   27
##########             Matchnum:                  191
##########                Cloud:                    1
##########        Electrostatic:           -52.522785
##########        Van der Waals:           -30.731800
##########  Ligand Polar Desolv:            17.872547
########## Ligand Apolar Desolv:            -4.557775
##########      Internal Energy:             0.000000
##########      Receptor Energy: 0.0
########## Receptor Desolvation:             0.000000
########## Receptor Hydrophobic:             0.000000
##########         Total Energy: -69.94
##########        Ligand Charge:             2.000000
##########            Arbitrary:    +999.9990
##########     heavy atom count:   38
##########           pose count:    1
##########        Ligand Energy:             0.000000
# num electro vdwattr vdwrepu polsolv apolsol rdesolv rhydroe totalscore fullpol fullapo
#   1    4.13   -3.84    8.61   -2.25    0.71    0.00    0.00       7.36   -3.79    1.19
#   2   -0.96   -1.83    0.30    0.12   -0.18    0.00    0.00      -2.54    0.22   -0.31
#   3    1.15   -2.37    0.67   -1.01   -0.26    0.00    0.00      -1.83   -1.78   -0.46
#   4    1.00   -1.63    0.22   -0.68   -0.22    0.00    0.00      -1.32   -1.40   -0.46
#   5    0.79   -1.18    0.09   -0.50   -0.15    0.00    0.00      -0.95   -1.20   -0.36
#   6    0.41   -0.85    0.13   -0.45   -0.08    0.00    0.00      -0.85   -1.39   -0.23
#   7    0.95   -0.65    0.19   -0.59   -0.05    0.00    0.00      -0.15   -2.48   -0.22
#   8   -0.63   -0.32    0.02    0.61   -0.07    0.00    0.00      -0.39    3.53   -0.43
#   9    4.62   -0.37    0.03   -2.10    0.22    0.00    0.00       2.39  -16.75    1.73
#  10   -8.40   -0.44    0.04    2.83   -0.76    0.00    0.00      -6.73   18.00   -4.81
#  11    9.20   -0.45    0.02   -3.48    0.37    0.00    0.00       5.67  -19.99    2.12
#  12  -16.94   -0.94    0.15    6.09   -1.18    0.00    0.00     -12.81   24.82   -4.80
#  13   17.96   -1.26    0.28   -7.38    0.44    0.00    0.00      10.04  -25.20    1.51
#  14   -2.23   -0.43    0.02    1.08   -0.06    0.00    0.00      -1.61    4.32   -0.22
#  15    3.07   -0.63    0.06   -2.66   -0.08    0.00    0.00      -0.24   -8.34   -0.24
#  16    0.04   -0.50    0.04    0.12   -0.13    0.00    0.00      -0.42    0.44   -0.47
#  17    9.76   -2.44    3.10   -8.87    0.32    0.00    0.00       1.87  -24.88    0.89
#  18  -17.50   -0.18    0.09    8.64    0.21    0.00    0.00      -8.74   22.82    0.56
#  19   -3.61   -0.05    0.00    6.70    0.16    0.00    0.00       3.21   24.25    0.57
#  20    0.07   -1.29    0.43    0.26   -0.16    0.00    0.00      -0.69    0.75   -0.47
#  21    3.84   -0.75    0.08   -2.56   -0.09    0.00    0.00       0.53   -7.09   -0.24
#  22   21.41   -1.92    1.10   -6.18    0.27    0.00    0.00      14.68  -22.56    0.99
#  23  -20.02   -0.09    0.01    6.24    0.10    0.00    0.00     -13.76   20.78    0.32
#  24  -17.60   -0.86    0.18    4.98   -1.03    0.00    0.00     -14.33   23.17   -4.81
#  25   17.32   -0.88    0.18   -4.60    0.36    0.00    0.00      12.37  -21.69    1.68
#  26   -1.85   -0.40    0.03    0.90   -0.06    0.00    0.00      -1.38    4.63   -0.33
#  27    1.99   -0.61    0.03   -0.46   -0.08    0.00    0.00       0.87   -2.26   -0.37
#  28    1.17   -0.53    0.02   -0.38   -0.09    0.00    0.00       0.19   -1.95   -0.45
#  29    2.24   -0.75    0.03   -0.93   -0.13    0.00    0.00       0.46   -3.28   -0.47
#  30    2.19   -1.25    0.15   -1.07   -0.18    0.00    0.00      -0.16   -2.73   -0.47
#  31    2.46   -1.27    0.11   -1.23   -0.19    0.00    0.00      -0.12   -2.95   -0.46
#  32    0.43   -0.81    0.03   -0.23   -0.12    0.00    0.00      -0.70   -0.75   -0.38
#  33    1.33   -1.07    0.08   -0.39   -0.12    0.00    0.00      -0.16   -1.11   -0.33
#  34    1.49   -1.24    0.11   -1.00   -0.18    0.00    0.00      -0.81   -2.58   -0.46
#  35    1.72   -1.54    0.31   -1.26   -0.21    0.00    0.00      -0.98   -2.83   -0.47
#  36    2.36   -2.71    1.80   -1.50   -0.23    0.00    0.00      -0.28   -3.12   -0.47
#  37    3.70   -2.73    1.22   -1.46   -0.24    0.00    0.00       0.49   -2.82   -0.47
#  38    4.04   -1.83    0.40   -1.18   -0.17    0.00    0.00       1.25   -2.52   -0.37
#  39    9.04   -0.46    0.02   -3.52    0.37    0.00    0.00       5.44  -18.84    1.96
#  40    0.62   -1.36    0.15   -0.55   -0.18    0.00    0.00      -1.32   -1.40   -0.46
#  41    1.27   -1.83    0.63   -0.86   -0.22    0.00    0.00      -1.00   -1.80   -0.46
#  42   -5.10   -0.07    0.01    2.70    0.68    0.00    0.00      -1.78    4.82    1.22
#  43   -0.51   -1.20    1.22    0.58   -0.15    0.00    0.00      -0.06    1.11   -0.28
#  44   -1.78   -0.56    0.29    0.99   -0.11    0.00    0.00      -1.16    2.62   -0.28
#  45   -0.81   -0.31    0.06    0.55   -0.08    0.00    0.00      -0.60    1.98   -0.28
#  46    0.06   -0.57    0.36    0.51   -0.08    0.00    0.00       0.28    1.86   -0.28
#  47   -0.73   -0.33    0.24    0.26   -0.05    0.00    0.00      -0.61    1.54   -0.28
#  48   -0.57   -0.27    0.15    0.26   -0.04    0.00    0.00      -0.47    1.66   -0.28
#  49   -0.48   -0.08    0.00    0.13   -0.02    0.00    0.00      -0.44    2.06   -0.28
#  50   -0.32   -0.13    0.02    0.20   -0.03    0.00    0.00      -0.26    1.83   -0.28
#  51   -2.54    0.00    0.00    0.56    0.03    0.00    0.00      -1.96   11.01    0.58
#  52  -15.93   -0.04    0.00    5.29    0.18    0.00    0.00     -10.50   17.10    0.58
#  53   -1.17   -0.06    0.00    0.41   -0.01    0.00    0.00      -0.83    7.56   -0.23
#  54   -2.67   -0.40    0.12    1.51   -0.10    0.00    0.00      -1.54    4.31   -0.28
#  55   -1.55   -0.17    0.01    0.85   -0.05    0.00    0.00      -0.91    4.80   -0.28
#  56   -1.29   -0.16    0.01    1.37   -0.05    0.00    0.00      -0.13    7.28   -0.28
#  57   -0.32   -0.07    0.00    0.55   -0.02    0.00    0.00       0.15    9.34   -0.28
#  58   -4.83   -1.02    1.17    2.81   -0.12    0.00    0.00      -1.99    6.51   -0.28
#  59   -0.88   -0.19    0.02    1.84   -0.06    0.00    0.00       0.73    8.25   -0.28
#  60   -2.68   -0.23    0.04    0.75   -0.06    0.00    0.00      -2.17    3.80   -0.28
#  61   -3.72   -0.34    0.05    1.65   -0.10    0.00    0.00      -2.46    4.67   -0.28
#  62  -16.13   -0.02    0.00    2.52    0.12    0.00    0.00     -13.51   12.62    0.58
#  63   -0.50   -0.14    0.02    0.68   -0.02    0.00    0.00       0.04    5.75   -0.17
#  64   -1.06   -0.13    0.01    0.96   -0.03    0.00    0.00      -0.26    8.29   -0.27
#  65   -1.03   -0.07    0.00    0.43   -0.02    0.00    0.00      -0.69    6.45   -0.28
#  66   -2.74   -0.16    0.01    0.46   -0.05    0.00    0.00      -2.49    2.61   -0.28
#  67   -4.44   -0.46    0.16    0.49   -0.10    0.00    0.00      -4.35    1.33   -0.28
#  68   -3.56   -0.47    0.10    0.48   -0.12    0.00    0.00      -3.56    1.15   -0.28
#  69   -1.05   -0.34    0.06    0.49   -0.09    0.00    0.00      -0.93    1.57   -0.28
#  70   -1.85   -0.28    0.02    0.45   -0.09    0.00    0.00      -1.75    1.43   -0.28
#  71   -2.73   -0.80    0.59    1.03   -0.13    0.00    0.00      -2.04    2.18   -0.28
#  72   -4.52   -0.70    0.17    3.03   -0.17    0.00    0.00      -2.19    5.01   -0.28
#  73   -5.16   -0.49    0.23    2.76   -0.10    0.00    0.00      -2.76    6.85   -0.24
#  74   -0.52   -0.28    0.03    0.71   -0.07    0.00    0.00      -0.14    2.75   -0.28
#  75   -1.47   -0.58    0.57    0.39   -0.09    0.00    0.00      -1.19    1.17   -0.28

@<TRIPOS>MOLECULE
          T542834        26
   75    79     0     0     0



@<TRIPOS>ATOM
      1 O1          9.9382   -11.4467    99.3414 O.3        1          -0.4980
      2 C1          9.3178   -11.5432    98.1361 C.ar       1           0.1116
      3 C2          9.7578   -12.4679    97.2003 C.ar       1          -0.1430
      4 C3          9.1251   -12.5643    95.9760 C.ar       1          -0.0980
      5 C4          8.0545   -11.7399    95.6829 C.ar       1          -0.1049
      6 C5          7.3665   -11.8468    94.3463 C.3        1          -0.0710
      7 C6          8.0388   -10.9005    93.3496 C.3        1          -0.1326
      8 C7          7.3402   -11.0091    91.9926 C.3        1           0.1119
      9 N1          7.9840   -10.1031    91.0383 N.pl3      1          -0.6254
     10 C8          7.5333    -8.8053    90.9071 C.ar       1           0.6765
     11 N2          8.1138    -7.9846    90.0371 N.ar       1          -0.6080
     12 C9          7.6797    -6.7346    89.9108 C.ar       1           0.6957
     13 N3          8.2821    -5.8829    89.0074 N.pl3      1          -0.6706
     14 C10         9.4002    -6.3562    88.1874 C.3        1           0.1181
     15 C11        10.7197    -6.0873    88.9166 C.3        1          -0.1773
     16 C12        11.8863    -6.5111    88.0217 C.3        1          -0.0049
     17 N4         11.8517    -5.7442    86.7706 N.4        1          -0.5090
     18 H1         11.8784    -4.7577    86.9812 H          1           0.4342
     19 H2         12.6512    -5.9882    86.2054 H          1           0.4435
     20 C13        10.6214    -6.0521    86.0315 C.3        1          -0.0035
     21 C14         9.4063    -5.6105    86.8499 C.3        1          -0.1565
     22 N5          6.6648    -6.3051    90.6545 N.ar       1          -0.6389
     23 H3          6.3480    -5.3929    90.5623 H          1           0.4283
     24 C15         6.0840    -7.1257    91.5240 C.ar       1           0.6916
     25 N6          5.0302    -6.6799    92.2956 N.pl3      1          -0.6460
     26 C16         4.3902    -7.5844    93.2540 C.3        1           0.1377
     27 C17         3.2763    -6.8583    93.9632 C.ar       1          -0.1290
     28 C18         1.9962    -6.8821    93.4467 C.ar       1          -0.0885
     29 C19         0.9732    -6.2163    94.0967 C.ar       1          -0.1132
     30 C20         1.2256    -5.5235    95.2672 C.ar       1          -0.0844
     31 C21         2.5012    -5.4934    95.7927 C.ar       1          -0.1021
     32 C22         3.5351    -6.1667    95.1446 C.ar       1          -0.0206
     33 C23         4.9078    -6.1422    95.7076 C.ar       1          -0.0589
     34 C24         5.3135    -7.1287    96.6042 C.ar       1          -0.0997
     35 C25         6.5916    -7.1014    97.1245 C.ar       1          -0.1063
     36 C26         7.4691    -6.0971    96.7574 C.ar       1          -0.1104
     37 C27         7.0715    -5.1152    95.8681 C.ar       1          -0.1214
     38 C28         5.7976    -5.1360    95.3373 C.ar       1          -0.1221
     39 N7          6.5150    -8.3774    91.6468 N.ar       1          -0.6044
     40 C29         7.6139   -10.8178    96.6141 C.ar       1          -0.0980
     41 C30         8.2398   -10.7211    97.8417 C.ar       1          -0.1430
     42 H4          9.5580   -10.7776    99.9270 H          1           0.3949
     43 H5         10.5944   -13.1116    97.4284 H          1           0.1316
     44 H6          9.4673   -13.2840    95.2470 H          1           0.1259
     45 H7          7.4395   -12.8711    93.9810 H          1           0.0799
     46 H8          6.3169   -11.5739    94.4552 H          1           0.0798
     47 H9          7.9657    -9.8764    93.7150 H          1           0.0798
     48 H10         9.0884   -11.1735    93.2408 H          1           0.0797
     49 H11         7.4134   -12.0334    91.6272 H          1           0.0924
     50 H12         6.2906   -10.7363    92.1015 H          1           0.0925
     51 H13         8.7270   -10.4153    90.4985 H          1           0.4347
     52 H14         7.9653    -4.9707    88.9151 H          1           0.4485
     53 H15         9.2932    -7.4260    88.0078 H          1           0.1024
     54 H16        10.8011    -5.0239    89.1414 H          1           0.1141
     55 H17        10.7463    -6.6592    89.8442 H          1           0.1114
     56 H18        12.8273    -6.3211    88.5378 H          1           0.1489
     57 H19        11.8041    -7.5746    87.7976 H          1           0.1368
     58 H20        10.6287    -5.5230    85.0785 H          1           0.1516
     59 H21        10.5661    -7.1253    85.8500 H          1           0.1386
     60 H22         8.4938    -5.8416    86.3003 H          1           0.1316
     61 H23         9.4604    -4.5372    87.0319 H          1           0.1109
     62 H24         4.7133    -5.7679    92.2034 H          1           0.4477
     63 H25         3.9829    -8.4458    92.7244 H          1           0.0941
     64 H26         5.1266    -7.9212    93.9834 H          1           0.0893
     65 H27         1.7937    -7.4214    92.5332 H          1           0.1286
     66 H28        -0.0267    -6.2369    93.6886 H          1           0.1355
     67 H29         0.4230    -5.0049    95.7704 H          1           0.1375
     68 H30         2.6974    -4.9519    96.7064 H          1           0.1348
     69 H31         4.6290    -7.9130    96.8918 H          1           0.1295
     70 H32         6.9070    -7.8652    97.8198 H          1           0.1316
     71 H33         8.4683    -6.0795    97.1669 H          1           0.1274
     72 H34         7.7606    -4.3332    95.5852 H          1           0.1229
     73 H35         5.4896    -4.3713    94.6395 H          1           0.1184
     74 H36         6.7772   -10.1752    96.3829 H          1           0.1259
     75 H37         7.8927   -10.0032    98.5703 H          1           0.1316
@<TRIPOS>BOND
     1    1    2 1
     2    1   42 1
     3    2   41 ar
     4    2    3 ar
     5    3    4 ar
     6    3   43 1
     7    4    5 ar
     8    4   44 1
     9    5    6 1
    10    5   40 ar
    11    6    7 1
    12    6   45 1
    13    6   46 1
    14    7    8 1
    15    7   47 1
    16    7   48 1
    17    8    9 1
    18    8   49 1
    19    8   50 1
    20    9   10 1
    21    9   51 1
    22   10   39 ar
    23   10   11 ar
    24   11   12 ar
    25   12   13 1
    26   12   22 ar
    27   13   14 1
    28   13   52 1
    29   14   21 1
    30   14   15 1
    31   14   53 1
    32   15   16 1
    33   15   54 1
    34   15   55 1
    35   16   17 1
    36   16   56 1
    37   16   57 1
    38   17   18 1
    39   17   19 1
    40   17   20 1
    41   20   21 1
    42   20   58 1
    43   20   59 1
    44   21   60 1
    45   21   61 1
    46   22   23 1
    47   22   24 ar
    48   24   25 1
    49   24   39 ar
    50   25   26 1
    51   25   62 1
    52   26   27 1
    53   26   63 1
    54   26   64 1
    55   27   32 ar
    56   27   28 ar
    57   28   29 ar
    58   28   65 1
    59   29   30 ar
    60   29   66 1
    61   30   31 ar
    62   30   67 1
    63   31   32 ar
    64   31   68 1
    65   32   33 1
    66   33   38 ar
    67   33   34 ar
    68   34   35 ar
    69   34   69 1
    70   35   36 ar
    71   35   70 1
    72   36   37 ar
    73   36   71 1
    74   37   38 ar
    75   37   72 1
    76   38   73 1
    77   40   41 ar
    78   40   74 1
    79   41   75 1
##########                 Name:              T368807
##########          Protonation:                   94
##########               SMILES:   c1cc(c(cc1/C=C\C(=O)NCCCCC[NH+]2CCCN(CC2)C(=O)Nc3ccc(c(c3)Cl)F)Cl)Cl
##########            Long Name:   4-dichlorophenyl)prop-2-enoyl]amino]pentyl]-1,4-diazepan-4-ium-1-carboxamide
##########          FlexRecCode: 1
##########               Number:                  252
##########   Ligand Source File: /raidb/db2/rgc/tcams/tcams-0001573.db2.gz
##########           GlobalRank: 56
##########                 Rank:                    1
##########               Setnum:                  237
##########             Matchnum:                  299
##########                Cloud:                    1
##########        Electrostatic:           -38.315342
##########        Van der Waals:           -35.651104
##########  Ligand Polar Desolv:             8.943411
########## Ligand Apolar Desolv:            -4.863405
##########      Internal Energy:             0.000000
##########      Receptor Energy: 0.0
########## Receptor Desolvation:             0.000000
########## Receptor Hydrophobic:             0.000000
##########         Total Energy: -69.89
##########        Ligand Charge:             1.000000
##########            Arbitrary:    +999.9990
##########     heavy atom count:   36
##########           pose count:    1
##########        Ligand Energy:             0.000000
# num electro vdwattr vdwrepu polsolv apolsol rdesolv rhydroe totalscore fullpol fullapo
#   1    1.02   -1.95    2.20   -0.18   -0.28    0.00    0.00       0.81   -0.31   -0.47
#   2   -1.05   -2.04    0.71   -0.02   -0.18    0.00    0.00      -2.58   -0.03   -0.34
#   3    1.70   -2.02    0.58   -0.56   -0.24    0.00    0.00      -0.54   -1.09   -0.47
#   4    1.34   -1.56    0.23   -0.53   -0.21    0.00    0.00      -0.74   -1.15   -0.46
#   5   -1.06   -1.40    0.17    0.81   -0.24    0.00    0.00      -1.72    2.23   -0.67
#   6    3.93   -1.37    0.27   -3.69    0.55    0.00    0.00      -0.31  -11.24    1.67
#   7   -6.36   -1.26    0.22    3.80   -0.69    0.00    0.00      -4.29   11.23   -2.03
#   8    4.93   -1.72    0.30   -2.88    0.14    0.00    0.00       0.77   -6.72    0.32
#   9   10.27   -0.79    0.04   -3.88    0.40    0.00    0.00       6.04  -13.91    1.44
#  10   -2.15   -0.62    0.03    0.68   -0.15    0.00    0.00      -2.21    2.07   -0.46
#  11    5.48   -1.07    0.15   -1.94   -0.10    0.00    0.00       2.51   -4.48   -0.24
#  12    0.38   -1.20    0.31   -0.13   -0.14    0.00    0.00      -0.78   -0.34   -0.36
#  13   13.55   -1.59    1.02   -3.24    0.05    0.00    0.00       9.79  -11.25    0.18
#  14  -23.16   -0.13    0.04    4.69    0.12    0.00    0.00     -18.44   16.88    0.44
#  15    0.60   -1.14    0.34   -0.03   -0.11    0.00    0.00      -0.34   -0.10   -0.35
#  16    3.59   -0.86    0.19   -1.10   -0.06    0.00    0.00       1.76   -3.97   -0.20
#  17    0.43   -0.85    0.18   -0.82   -0.06    0.00    0.00      -1.12   -2.89   -0.22
#  18    0.32   -0.37    0.03   -0.45   -0.04    0.00    0.00      -0.52   -2.30   -0.22
#  19   -0.19   -0.49    0.06    0.32   -0.09    0.00    0.00      -0.39    1.44   -0.42
#  20    0.89   -0.39    0.01   -1.53    0.39    0.00    0.00      -0.63   -9.22    2.33
#  21   -0.57   -0.56    0.02    1.10   -0.14    0.00    0.00      -0.15    4.50   -0.58
#  22    0.46   -0.95    0.09   -0.79    0.10    0.00    0.00      -1.09   -2.22    0.29
#  23    0.24   -0.60    0.04   -0.54   -0.11    0.00    0.00      -0.96   -2.24   -0.45
#  24    0.02   -0.58    0.06   -0.11   -0.10    0.00    0.00      -0.72   -0.52   -0.44
#  25    0.12   -0.62    0.07   -0.06   -0.06    0.00    0.00      -0.56   -0.31   -0.31
#  26    0.04   -0.44    0.02   -0.02   -0.05    0.00    0.00      -0.44   -0.13   -0.29
#  27    0.07   -0.58    0.03   -0.04   -0.07    0.00    0.00      -0.58   -0.16   -0.30
#  28    0.04   -3.15    1.76   -0.04   -0.28    0.00    0.00      -1.67   -0.13   -0.95
#  29    0.09   -0.65    0.05   -0.04   -0.07    0.00    0.00      -0.63   -0.16   -0.29
#  30    0.64   -1.45    0.11   -0.03   -0.27    0.00    0.00      -1.00   -0.10   -0.95
#  31    1.06   -0.87    0.16   -0.12   -0.12    0.00    0.00       0.11   -0.48   -0.46
#  32    0.43   -0.93    0.17   -0.16   -0.12    0.00    0.00      -0.62   -0.57   -0.45
#  33    0.97   -0.39    0.03   -0.08   -0.08    0.00    0.00       0.45   -0.39   -0.39
#  34   -2.25   -0.47    0.03    0.57   -0.10    0.00    0.00      -2.22    2.34   -0.42
#  35    0.46   -1.51    0.20   -0.34   -0.16    0.00    0.00      -1.35   -0.85   -0.39
#  36    0.43   -1.61    0.24   -0.24   -0.16    0.00    0.00      -1.34   -0.45   -0.30
#  37    0.29   -4.97    1.88   -0.19   -0.58    0.00    0.00      -3.57   -0.32   -0.97
#  38   -3.14   -0.48    0.10    0.98   -0.13    0.00    0.00      -2.68    2.04   -0.28
#  39   -2.18   -0.26    0.02    1.17   -0.08    0.00    0.00      -1.34    4.01   -0.28
#  40   -1.62   -0.02    0.00    1.83    0.08    0.00    0.00       0.27    9.78    0.41
#  41   -1.80   -0.13    0.00    0.29   -0.02    0.00    0.00      -1.66    2.55   -0.20
#  42   -2.06   -0.28    0.03    0.59   -0.07    0.00    0.00      -1.79    2.24   -0.28
#  43   -4.34   -0.51    0.11    2.01   -0.12    0.00    0.00      -2.86    4.54   -0.28
#  44   -4.10   -0.49    0.28    1.82   -0.09    0.00    0.00      -2.57    4.83   -0.25
#  45   -3.37   -0.19    0.01    0.60   -0.05    0.00    0.00      -3.00    2.96   -0.24
#  46   -6.09   -0.84    0.68    2.59   -0.10    0.00    0.00      -3.75    6.08   -0.23
#  47   -2.12   -0.14    0.01    0.67   -0.04    0.00    0.00      -1.61    4.65   -0.26
#  48   -4.53   -0.96    0.90    1.55   -0.11    0.00    0.00      -3.15    3.88   -0.27
#  49   -3.48   -0.65    0.48    1.12   -0.07    0.00    0.00      -2.59    3.84   -0.23
#  50   -1.59   -0.09    0.00    0.33   -0.02    0.00    0.00      -1.37    3.82   -0.28
#  51   -0.42   -0.78    0.67    0.46   -0.10    0.00    0.00      -0.18    1.22   -0.28
#  52   -0.27   -0.16    0.02    0.18   -0.04    0.00    0.00      -0.28    1.19   -0.28
#  53   -0.24   -0.04    0.00    0.09   -0.01    0.00    0.00      -0.20    2.10   -0.28
#  54   -0.20   -0.14    0.02    0.26   -0.03    0.00    0.00      -0.09    2.05   -0.28
#  55   -0.09   -0.39    0.15    0.05   -0.07    0.00    0.00      -0.35    0.19   -0.28
#  56   -0.12   -0.11    0.01    0.02   -0.03    0.00    0.00      -0.23    0.19   -0.28
#  57   -0.47    0.00    0.00    0.32    0.02    0.00    0.00      -0.13    7.51    0.56
#  58   -0.13   -0.19    0.03    0.70   -0.06    0.00    0.00       0.36    3.46   -0.28
#  59   -0.23   -0.13    0.02    0.42   -0.04    0.00    0.00       0.03    2.81   -0.28
#  60   -0.18   -0.05    0.00    0.03   -0.01    0.00    0.00      -0.21    0.60   -0.25
#  61   -2.37   -0.16    0.01    0.13   -0.04    0.00    0.00      -2.43    0.90   -0.28
#  62   -0.91   -0.23    0.04    0.48   -0.07    0.00    0.00      -0.70    1.87   -0.28
#  63   -1.84   -0.09    0.00    0.20   -0.02    0.00    0.00      -1.74    2.42   -0.28
#  64   -2.28   -0.07    0.00    0.39   -0.02    0.00    0.00      -1.98    5.84   -0.26
#  65   -3.08   -0.25    0.05    1.08   -0.06    0.00    0.00      -2.25    5.04   -0.28
#  66   -1.55   -0.12    0.01    0.12   -0.03    0.00    0.00      -1.57    1.03   -0.24
#  67   -0.49   -0.34    0.05    0.29   -0.06    0.00    0.00      -0.55    0.98   -0.21

@<TRIPOS>MOLECULE
          T368807        94
   67    69     0     0     0



@<TRIPOS>ATOM
      1 F1          9.7131   -11.4496    99.3852 F          1          -0.1197
      2 C1          8.8735   -10.9023    98.4793 C.ar       1           0.1042
      3 C2          8.5798    -9.5505    98.5370 C.ar       1          -0.1181
      4 C3          7.7214    -8.9889    97.6123 C.ar       1          -0.1081
      5 C4          7.1525    -9.7806    96.6234 C.ar       1           0.1479
      6 N1          6.2822    -9.2123    95.6847 N.am       1          -0.6755
      7 C5          5.5261    -8.1493    96.0237 C.2        1           0.7014
      8 O1          5.1607    -8.0054    97.1743 O.2        1          -0.5488
      9 N2          5.1751    -7.2459    95.0871 N.am       1          -0.6357
     10 C6          4.3477    -6.0621    95.4341 C.3        1           0.0948
     11 C7          4.6431    -4.7299    94.7869 C.3        1          -0.1571
     12 C8          3.9067    -4.6635    93.4331 C.3        1          -0.0104
     13 N3          4.4882    -5.5147    92.4608 N.4        1          -0.3663
     14 H1          5.4488    -5.2365    92.3267 H          1           0.4171
     15 C9          3.7723    -5.3276    91.1917 C.3        1          -0.0210
     16 C10         4.6455    -5.8201    90.0359 C.3        1          -0.1459
     17 C11         3.8998    -5.6252    88.7142 C.3        1          -0.1156
     18 C12         2.5944    -6.4226    88.7428 C.3        1          -0.1318
     19 C13         1.8486    -6.2276    87.4211 C.3        1           0.1181
     20 N4          0.5986    -6.9911    87.4485 N.am       1          -0.7307
     21 C14        -0.5307    -6.4184    87.9102 C.2        1           0.5381
     22 O2         -0.5120    -5.2671    88.3043 O.2        1          -0.5205
     23 C15        -1.7798    -7.1813    87.9377 C.2        1          -0.2159
     24 C16        -2.1037    -7.9056    89.0281 C.2        1          -0.0117
     25 C17        -1.3239    -7.7586    90.2673 C.ar       1          -0.0606
     26 C18        -0.6594    -8.8612    90.8143 C.ar       1          -0.0241
     27 C19         0.0700    -8.7158    91.9758 C.ar       1          -0.0388
     28 Cl1         0.8961   -10.0823    92.6568 Cl         1          -0.0531
     29 C20         0.1452    -7.4798    92.6005 C.ar       1          -0.0200
     30 Cl2         1.0653    -7.3052    94.0622 Cl         1          -0.0474
     31 C21        -0.5102    -6.3843    92.0636 C.ar       1          -0.1072
     32 C22        -1.2388    -6.5144    90.9003 C.ar       1          -0.0810
     33 C23         4.4617    -6.9406    92.7989 C.3        1          -0.0473
     34 C24         5.6074    -7.3969    93.6744 C.3        1           0.1146
     35 C25         7.4479   -11.1356    96.5660 C.ar       1          -0.0876
     36 C26         8.3117   -11.6933    97.4901 C.ar       1          -0.0574
     37 Cl3         8.6874   -13.3865    97.4152 Cl         1          -0.0337
     38 H2          9.0222    -8.9346    99.3062 H          1           0.1554
     39 H3          7.4923    -7.9344    97.6584 H          1           0.1442
     40 H4          6.2236    -9.5838    94.7904 H          1           0.4106
     41 H5          3.3110    -6.3116    95.2079 H          1           0.0926
     42 H6          4.4152    -5.9223    96.5130 H          1           0.0950
     43 H7          4.2951    -3.9239    95.4328 H          1           0.1281
     44 H8          5.7166    -4.6316    94.6250 H          1           0.0946
     45 H9          2.8674    -4.9559    93.5818 H          1           0.1287
     46 H10         3.9347    -3.6376    93.0660 H          1           0.1384
     47 H11         2.8422    -5.8956    91.2121 H          1           0.1346
     48 H12         3.5491    -4.2697    91.0532 H          1           0.1316
     49 H13         5.5756    -5.2522    90.0156 H          1           0.0870
     50 H14         4.8688    -6.8781    90.1745 H          1           0.0893
     51 H15         3.6766    -4.5674    88.5757 H          1           0.0797
     52 H16         4.5220    -5.9761    87.8909 H          1           0.0787
     53 H17         2.8177    -7.4804    88.8814 H          1           0.0738
     54 H18         1.9722    -6.0716    89.5662 H          1           0.0745
     55 H19         1.6254    -5.1698    87.2826 H          1           0.0696
     56 H20         2.4708    -6.5786    86.5978 H          1           0.0697
     57 H21         0.5837    -7.9087    87.1345 H          1           0.4012
     58 H22        -2.4420    -7.1640    87.0847 H          1           0.1386
     59 H23        -2.9352    -8.5937    88.9917 H          1           0.1472
     60 H24        -0.7177    -9.8242    90.3286 H          1           0.1301
     61 H25        -0.4471    -5.4248    92.5551 H          1           0.1443
     62 H26        -1.7458    -5.6581    90.4808 H          1           0.1400
     63 H27         3.5247    -7.1560    93.3125 H          1           0.1318
     64 H28         4.4835    -7.5153    91.8730 H          1           0.1469
     65 H29         6.4874    -6.7810    93.4888 H          1           0.1029
     66 H30         5.8377    -8.4420    93.4677 H          1           0.1343
     67 H31         7.0064   -11.7530    95.7976 H          1           0.1615
@<TRIPOS>BOND
     1    1    2 1
     2    2   36 ar
     3    2    3 ar
     4    3    4 ar
     5    3   38 1
     6    4    5 ar
     7    4   39 1
     8    5    6 1
     9    5   35 ar
    10    6    7 am
    11    6   40 1
    12    7    8 2
    13    7    9 am
    14    9   34 1
    15    9   10 1
    16   10   11 1
    17   10   41 1
    18   10   42 1
    19   11   12 1
    20   11   43 1
    21   11   44 1
    22   12   13 1
    23   12   45 1
    24   12   46 1
    25   13   14 1
    26   13   15 1
    27   13   33 1
    28   15   16 1
    29   15   47 1
    30   15   48 1
    31   16   17 1
    32   16   49 1
    33   16   50 1
    34   17   18 1
    35   17   51 1
    36   17   52 1
    37   18   19 1
    38   18   53 1
    39   18   54 1
    40   19   20 1
    41   19   55 1
    42   19   56 1
    43   20   21 am
    44   20   57 1
    45   21   22 2
    46   21   23 1
    47   23   24 2
    48   23   58 1
    49   24   25 1
    50   24   59 1
    51   25   32 ar
    52   25   26 ar
    53   26   27 ar
    54   26   60 1
    55   27   28 1
    56   27   29 ar
    57   29   30 1
    58   29   31 ar
    59   31   32 ar
    60   31   61 1
    61   32   62 1
    62   33   34 1
    63   33   63 1
    64   33   64 1
    65   34   65 1
    66   34   66 1
    67   35   36 ar
    68   35   67 1
    69   36   37 1
##########                 Name:              T531785
##########          Protonation:                   97
##########               SMILES:   C[NH+](CC[C@H](c1ccc(c(c1)Cl)Cl)O)C[C@@H]2C[C@@H]2C(=O)c3cccc(c3)OC
##########            Long Name:   xy-propyl]-[[(1R,2S)-2-(3-methoxybenzoyl)cyclopropyl]methyl]-methyl-ammonium
##########          FlexRecCode: 1
##########               Number:                  237
##########   Ligand Source File: /raidb/db2/rgc/tcams/tcams-0000866.db2.gz
##########           GlobalRank: 57
##########                 Rank:                    1
##########               Setnum:                   25
##########             Matchnum:                 2975
##########                Cloud:                    1
##########        Electrostatic:           -47.485271
##########        Van der Waals:           -26.152113
##########  Ligand Polar Desolv:             8.515594
########## Ligand Apolar Desolv:            -4.729838
##########      Internal Energy:             0.000000
##########      Receptor Energy: 0.0
########## Receptor Desolvation:             0.000000
########## Receptor Hydrophobic:             0.000000
##########         Total Energy: -69.85
##########        Ligand Charge:             1.000000
##########            Arbitrary:    +999.9990
##########     heavy atom count:   28
##########           pose count:    1
##########        Ligand Energy:             0.000000
# num electro vdwattr vdwrepu polsolv apolsol rdesolv rhydroe totalscore fullpol fullapo
#   1   -0.49   -2.28    0.59    0.06    0.02    0.00    0.00      -2.10    0.10    0.03
#   2    6.16   -2.06    0.40   -0.94    0.54    0.00    0.00       4.10   -1.61    0.93
#   3   -1.56   -1.79    0.43    0.12   -0.15    0.00    0.00      -2.95    0.25   -0.31
#   4    1.10   -1.39    0.14   -0.45   -0.19    0.00    0.00      -0.79   -1.09   -0.45
#   5    1.00   -1.30    0.16   -0.57   -0.14    0.00    0.00      -0.86   -1.67   -0.41
#   6    0.36   -1.62    0.32   -0.44   -0.16    0.00    0.00      -1.54   -1.22   -0.44
#   7    0.53   -1.48    0.19   -0.53   -0.21    0.00    0.00      -1.50   -1.22   -0.47
#   8    1.53   -1.76    0.54   -0.80   -0.20    0.00    0.00      -0.68   -1.69   -0.42
#   9   -3.48   -1.18    0.30    1.88   -0.08    0.00    0.00      -2.57    6.45   -0.29
#  10    0.76   -1.73    1.11   -1.62    0.08    0.00    0.00      -1.41   -6.39    0.33
#  11    3.37   -0.57    0.03   -1.56   -0.12    0.00    0.00       1.15   -4.90   -0.37
#  12    3.98   -1.01    0.18   -1.33   -0.16    0.00    0.00       1.66   -3.31   -0.41
#  13    5.21   -0.67    0.11   -0.71   -0.10    0.00    0.00       3.84   -2.51   -0.36
#  14   -0.58   -0.55    0.10    0.18   -0.05    0.00    0.00      -0.91    0.79   -0.24
#  15   16.12   -2.80    5.47   -3.24    0.09    0.00    0.00      15.64  -11.28    0.33
#  16  -29.45   -0.50    0.89    5.44    0.19    0.00    0.00     -23.44   16.11    0.55
#  17    2.07   -1.66    0.98   -0.80   -0.15    0.00    0.00       0.45   -2.45   -0.46
#  18    0.20   -0.79    0.25    0.06   -0.08    0.00    0.00      -0.37    0.25   -0.34
#  19    6.72   -2.02    1.68   -1.55   -0.06    0.00    0.00       4.77   -4.77   -0.19
#  20   -3.31   -0.53    0.05    0.85   -0.03    0.00    0.00      -2.98    3.60   -0.14
#  21    5.30   -0.29    0.01   -1.78    0.24    0.00    0.00       3.47  -12.13    1.64
#  22    2.47   -1.47    0.38   -0.51   -0.12    0.00    0.00       0.76   -1.46   -0.35
#  23    3.05   -1.74    0.28   -0.57   -0.19    0.00    0.00       0.84   -1.33   -0.44
#  24    3.24   -2.94    1.11   -0.72   -0.23    0.00    0.00       0.47   -1.45   -0.46
#  25    0.60   -3.15    1.97   -0.39   -0.16    0.00    0.00      -1.13   -0.73   -0.29
#  26    0.38   -5.14    1.80   -0.46   -0.67    0.00    0.00      -4.10   -0.65   -0.95
#  27    0.29   -2.92    1.52   -0.32   -0.13    0.00    0.00      -1.56   -0.70   -0.29
#  28    0.13   -7.07    6.14   -0.37   -0.50    0.00    0.00      -1.67   -0.69   -0.95
#  29    0.43   -2.21    1.38   -0.49   -0.16    0.00    0.00      -1.05   -1.36   -0.44
#  30   -1.57   -1.49    1.19    0.39   -0.17    0.00    0.00      -1.63    0.61   -0.26
#  31   -1.22   -0.69    0.26    0.36   -0.13    0.00    0.00      -1.41    0.70   -0.26
#  32   -1.91   -0.64    0.16    0.57   -0.16    0.00    0.00      -1.98    1.01   -0.28
#  33   -2.19   -0.25    0.02    0.13   -0.07    0.00    0.00      -2.36    0.48   -0.26
#  34    0.03   -0.46    0.19    1.04   -0.06    0.00    0.00       0.74    3.89   -0.21
#  35   -0.97   -0.28    0.02    0.87   -0.10    0.00    0.00      -0.45    2.48   -0.28
#  36   -1.27   -0.34    0.06    0.58   -0.09    0.00    0.00      -1.07    1.40   -0.22
#  37   -2.47   -0.20    0.01    0.78   -0.05    0.00    0.00      -1.93    3.72   -0.22
#  38   -4.08   -0.38    0.06    1.36   -0.12    0.00    0.00      -3.17    3.11   -0.28
#  39   -3.50   -0.53    0.33    0.55   -0.09    0.00    0.00      -3.23    1.72   -0.28
#  40   -4.46   -0.20    0.02    1.20   -0.04    0.00    0.00      -3.48    6.48   -0.22
#  41   -3.04   -0.12    0.01    0.39   -0.03    0.00    0.00      -2.79    3.07   -0.23
#  42   -2.10   -0.09    0.00    0.27   -0.02    0.00    0.00      -1.94    3.21   -0.26
#  43   -5.76   -1.26    2.69    1.62   -0.12    0.00    0.00      -2.83    3.92   -0.28
#  44   -2.53   -0.16    0.01    0.82   -0.04    0.00    0.00      -1.90    4.88   -0.22
#  45   -4.65   -0.44    0.14    1.57   -0.07    0.00    0.00      -3.45    5.16   -0.22
#  46   -3.10   -0.12    0.01    0.47   -0.03    0.00    0.00      -2.78    4.01   -0.28
#  47   -2.46   -0.09    0.00    0.33   -0.02    0.00    0.00      -2.23    3.93   -0.26
#  48   -4.39   -1.10    1.34    1.57   -0.08    0.00    0.00      -2.65    4.34   -0.21
#  49   -4.78   -1.65    3.90    1.42   -0.11    0.00    0.00      -1.23    3.75   -0.28
#  50   -2.38   -0.10    0.00    0.26   -0.03    0.00    0.00      -2.23    2.58   -0.28
#  51   -3.72    0.00    0.00    0.39    0.04    0.00    0.00      -3.29    9.94    1.01
#  52   -4.28   -0.29    0.03    1.59   -0.08    0.00    0.00      -3.03    4.91   -0.24
#  53   -6.20   -1.24    1.79    1.00   -0.14    0.00    0.00      -4.79    2.00   -0.28
#  54   -0.58   -0.30    0.08    0.54   -0.06    0.00    0.00      -0.30    2.74   -0.28

@<TRIPOS>MOLECULE
          T531785        97
   54    56     0     0     0



@<TRIPOS>ATOM
      1 C1          8.3833    -7.3148    99.2793 C.3        1           0.0232
      2 O1          8.6599    -8.7059    99.1042 O.3        1          -0.3132
      3 C2          8.0665    -9.3252    98.0500 C.ar       1           0.1212
      4 C3          7.2416    -8.6075    97.2012 C.ar       1          -0.0910
      5 C4          6.6335    -9.2486    96.1184 C.ar       1          -0.1398
      6 C5          6.8636   -10.6112    95.9012 C.ar       1          -0.1095
      7 C6          7.6875   -11.3145    96.7544 C.ar       1          -0.0887
      8 C7          8.2926   -10.6761    97.8220 C.ar       1          -0.1682
      9 C8          5.7546    -8.4936    95.2109 C.2        1           0.4318
     10 O2          5.2283    -9.0525    94.2723 O.2        1          -0.4556
     11 C9          5.5086    -7.0258    95.4483 C.3        1          -0.1857
     12 C10         6.5701    -6.0422    94.9515 C.3        1          -0.1302
     13 C11         5.2274    -6.1500    94.2257 C.3        1          -0.1784
     14 C12         5.2175    -6.8312    92.8557 C.3        1           0.0225
     15 N1          5.4127    -5.8225    91.8058 N.4        1          -0.3838
     16 H1          6.1018    -5.1507    92.1088 H          1           0.4250
     17 C13         4.1409    -5.1354    91.5443 C.3        1          -0.0572
     18 C14         5.8764    -6.4790    90.5761 C.3        1          -0.0068
     19 C15         6.5451    -5.4457    89.6673 C.3        1          -0.1808
     20 C16         7.0279    -6.1296    88.3866 C.3        1           0.1607
     21 O3          6.0519    -7.0809    87.9574 O.3        1          -0.5445
     22 C17         7.2284    -5.0948    87.3096 C.ar       1          -0.1184
     23 C18         8.4561    -4.4752    87.1666 C.ar       1          -0.0960
     24 C19         8.6412    -3.5259    86.1794 C.ar       1          -0.0916
     25 C20         7.5978    -3.1953    85.3333 C.ar       1          -0.0248
     26 Cl1         7.8299    -2.0034    84.0926 Cl         1          -0.0309
     27 C21         6.3686    -3.8159    85.4761 C.ar       1          -0.0290
     28 Cl2         5.0584    -3.4028    84.4149 Cl         1          -0.0319
     29 C22         6.1864    -4.7695    86.4618 C.ar       1          -0.0862
     30 H2          8.9180    -6.9453   100.1544 H          1           0.0603
     31 H3          8.7090    -6.7656    98.3958 H          1           0.0597
     32 H4          7.3120    -7.1725    99.4211 H          1           0.1079
     33 H5          7.0684    -7.5558    97.3752 H          1           0.1431
     34 H6          6.3961   -11.1120    95.0663 H          1           0.1340
     35 H7          7.8645   -12.3665    96.5859 H          1           0.1376
     36 H8          8.9403   -11.2320    98.4839 H          1           0.1387
     37 H9          4.9881    -6.7800    96.3739 H          1           0.1452
     38 H10         6.7482    -5.1492    95.5503 H          1           0.1243
     39 H11         7.4463    -6.4568    94.4529 H          1           0.1161
     40 H12         4.5223    -5.3277    94.3471 H          1           0.1377
     41 H13         6.0223    -7.5648    92.8090 H          1           0.1450
     42 H14         4.2607    -7.3314    92.7057 H          1           0.1319
     43 H15         4.2858    -4.3869    90.7654 H          1           0.1241
     44 H16         3.3964    -5.8612    91.2171 H          1           0.1246
     45 H17         3.7969    -4.6482    92.4567 H          1           0.1243
     46 H18         6.5945    -7.2590    90.8293 H          1           0.1344
     47 H19         5.0260    -6.9224    90.0582 H          1           0.1382
     48 H20         5.8270    -4.6658    89.4141 H          1           0.0948
     49 H21         7.3955    -5.0025    90.1853 H          1           0.1017
     50 H22         7.9716    -6.6395    88.5807 H          1           0.1231
     51 H23         5.8719    -7.7783    88.6029 H          1           0.3803
     52 H24         9.2709    -4.7330    87.8270 H          1           0.1363
     53 H25         9.6003    -3.0418    86.0687 H          1           0.1491
     54 H26         5.2289    -5.2569    86.5712 H          1           0.1457
@<TRIPOS>BOND
     1    1    2 1
     2    1   30 1
     3    1   31 1
     4    1   32 1
     5    2    3 1
     6    3    8 ar
     7    3    4 ar
     8    4    5 ar
     9    4   33 1
    10    5    6 ar
    11    5    9 1
    12    6    7 ar
    13    6   34 1
    14    7    8 ar
    15    7   35 1
    16    8   36 1
    17    9   10 2
    18    9   11 1
    19   11   13 1
    20   11   12 1
    21   11   37 1
    22   12   13 1
    23   12   38 1
    24   12   39 1
    25   13   14 1
    26   13   40 1
    27   14   15 1
    28   14   41 1
    29   14   42 1
    30   15   16 1
    31   15   17 1
    32   15   18 1
    33   17   43 1
    34   17   44 1
    35   17   45 1
    36   18   19 1
    37   18   46 1
    38   18   47 1
    39   19   20 1
    40   19   48 1
    41   19   49 1
    42   20   21 1
    43   20   22 1
    44   20   50 1
    45   21   51 1
    46   22   29 ar
    47   22   23 ar
    48   23   24 ar
    49   23   52 1
    50   24   25 ar
    51   24   53 1
    52   25   26 1
    53   25   27 ar
    54   27   28 1
    55   27   29 ar
    56   29   54 1
##########                 Name:              T538802
##########          Protonation:                   16
##########               SMILES:   CC(CCNC(=O)[C@@H]1[NH2+][C@@]2(c3[nH]c4c(c3C1)ccc(c4)Br)CCN(CC2)Cc5ccccc5)C
##########            Long Name:   ro[2,3,4,9-tetrahydropyrido[3,4-b]indol-2-ium-1,4'-piperidine]-3-carboxamide
##########          FlexRecCode: 1
##########               Number:                  237
##########   Ligand Source File: /raidb/db2/rgc/tcams/tcams-0001836.db2.gz
##########           GlobalRank: 58
##########                 Rank:                    1
##########               Setnum:                  200
##########             Matchnum:                 5548
##########                Cloud:                    1
##########        Electrostatic:           -47.583683
##########        Van der Waals:           -25.981483
##########  Ligand Polar Desolv:             7.052114
########## Ligand Apolar Desolv:            -3.267087
##########      Internal Energy:             0.000000
##########      Receptor Energy: 0.0
########## Receptor Desolvation:             0.000000
########## Receptor Hydrophobic:             0.000000
##########         Total Energy: -69.78
##########        Ligand Charge:             1.000000
##########            Arbitrary:    +999.9990
##########     heavy atom count:   34
##########           pose count:    1
##########        Ligand Energy:             0.000000
# num electro vdwattr vdwrepu polsolv apolsol rdesolv rhydroe totalscore fullpol fullapo
#   1    2.07   -0.73    0.12   -0.56   -0.06    0.00    0.00       0.83   -1.77   -0.18
#   2    1.79   -0.94    0.14   -0.48   -0.07    0.00    0.00       0.44   -1.22   -0.19
#   3    3.48   -1.42    0.27   -0.86   -0.09    0.00    0.00       1.37   -1.68   -0.18
#   4    3.28   -0.79    0.08   -0.71   -0.08    0.00    0.00       1.78   -1.92   -0.21
#   5   -2.08   -0.45    0.01    0.59   -0.11    0.00    0.00      -2.03    2.23   -0.41
#   6   14.96   -0.70    0.02   -4.19    0.59    0.00    0.00      10.70  -16.06    2.28
#   7  -11.68   -0.72    0.03    3.45   -0.16    0.00    0.00      -9.08   12.88   -0.60
#   8    8.45   -0.70    0.03   -3.53    0.11    0.00    0.00       4.37  -11.93    0.38
#   9   -0.18   -1.09    0.57    0.50   -0.09    0.00    0.00      -0.29    1.45   -0.25
#  10    1.75   -0.88    0.15   -0.63   -0.09    0.00    0.00       0.29   -1.62   -0.23
#  11    3.08   -0.94    0.09   -0.97   -0.13    0.00    0.00       1.14   -3.32   -0.43
#  12   -0.76   -0.72    0.06    0.48   -0.14    0.00    0.00      -1.09    1.96   -0.57
#  13    4.18   -0.88    0.11   -2.57    0.21    0.00    0.00       1.06  -10.91    0.91
#  14   -0.73   -1.16    0.19    0.36   -0.22    0.00    0.00      -1.56    1.26   -0.77
#  15    0.44   -1.28    0.17   -0.45   -0.16    0.00    0.00      -1.28   -1.34   -0.47
#  16    0.36   -1.40    0.17   -0.37   -0.11    0.00    0.00      -1.35   -0.93   -0.29
#  17    0.20   -5.07    1.27   -0.44   -0.63    0.00    0.00      -4.67   -0.78   -1.11
#  18    1.09   -1.66    0.37   -0.74   -0.18    0.00    0.00      -1.13   -1.82   -0.45
#  19    0.68   -1.29    0.12   -0.26   -0.19    0.00    0.00      -0.95   -0.66   -0.48
#  20    1.00   -1.10    0.12   -0.53   -0.14    0.00    0.00      -0.65   -1.64   -0.44
#  21   -3.39   -0.46    0.06    1.16   -0.01    0.00    0.00      -2.65    5.47   -0.05
#  22    1.63   -0.25    0.01   -0.55   -0.03    0.00    0.00       0.80   -3.68   -0.20
#  23   -0.22   -0.27    0.03    0.12   -0.05    0.00    0.00      -0.39    0.96   -0.38
#  24    3.48   -0.19    0.00   -0.79    0.25    0.00    0.00       2.75  -10.21    3.18
#  25   -0.21   -0.08    0.00    0.09   -0.02    0.00    0.00      -0.22    1.49   -0.39
#  26    0.23   -0.21    0.01   -0.08   -0.03    0.00    0.00      -0.08   -0.90   -0.34
#  27    0.36   -0.17    0.00   -0.08   -0.03    0.00    0.00       0.08   -1.21   -0.46
#  28    0.50   -0.33    0.01   -0.17   -0.06    0.00    0.00      -0.04   -1.29   -0.47
#  29    0.95   -0.81    0.13   -0.28   -0.11    0.00    0.00      -0.12   -1.26   -0.47
#  30    0.68   -0.97    0.18   -0.32   -0.11    0.00    0.00      -0.55   -1.35   -0.47
#  31    0.19   -0.70    0.23   -0.21   -0.06    0.00    0.00      -0.55   -1.34   -0.36
#  32   -0.59   -0.19    0.01    0.10   -0.05    0.00    0.00      -0.72    0.77   -0.38
#  33    3.10   -0.51    0.07   -0.77   -0.04    0.00    0.00       1.85   -3.51   -0.19
#  34   20.19   -2.53    5.18   -4.07    0.10    0.00    0.00      18.88  -14.62    0.36
#  35  -16.81   -0.03    0.00    3.50    0.13    0.00    0.00     -13.22   15.08    0.54
#  36  -29.18   -0.35    0.41    5.01    0.16    0.00    0.00     -23.95   15.46    0.50
#  37   -0.53   -0.13    0.01    0.08   -0.03    0.00    0.00      -0.60    0.67   -0.28
#  38   -1.14   -0.28    0.09    0.03   -0.06    0.00    0.00      -1.34    0.17   -0.28
#  39   -0.49   -0.39    0.22    0.23   -0.06    0.00    0.00      -0.49    0.86   -0.22
#  40   -1.27   -0.54    0.31    0.23   -0.09    0.00    0.00      -1.35    0.72   -0.28
#  41   -1.37   -1.11    1.53    0.27   -0.12    0.00    0.00      -0.81    0.62   -0.28
#  42   -1.28   -0.49    0.08    0.30   -0.12    0.00    0.00      -1.51    0.68   -0.28
#  43   -1.49   -0.28    0.02    0.06   -0.09    0.00    0.00      -1.78    0.20   -0.28
#  44   -1.99   -0.36    0.09    0.48   -0.08    0.00    0.00      -1.86    1.59   -0.28
#  45   -2.37   -0.37    0.11    0.49   -0.09    0.00    0.00      -2.22    1.61   -0.28
#  46   -1.57   -0.15    0.01    0.14   -0.03    0.00    0.00      -1.61    0.93   -0.22
#  47   -1.03   -0.10    0.00    0.08   -0.03    0.00    0.00      -1.08    0.81   -0.28
#  48   -9.52   -0.01    0.00    2.25    0.11    0.00    0.00      -7.19   11.45    0.55
#  49   -7.81   -0.56    0.42    2.67   -0.08    0.00    0.00      -5.36    7.26   -0.21
#  50   -4.99   -0.47    0.19    1.91   -0.11    0.00    0.00      -3.48    4.55   -0.27
#  51   -2.80   -0.26    0.04    0.85   -0.07    0.00    0.00      -2.24    3.66   -0.28
#  52   -2.10   -0.01    0.00    1.09    0.05    0.00    0.00      -0.97    8.37    0.36
#  53   -0.71   -0.24    0.03    0.34   -0.07    0.00    0.00      -0.65    1.45   -0.28
#  54   -1.72   -0.47    0.27    0.35   -0.09    0.00    0.00      -1.67    1.12   -0.28
#  55   -2.25   -0.26    0.02    1.04   -0.08    0.00    0.00      -1.53    3.64   -0.28
#  56   -0.86   -0.09    0.00    0.32   -0.02    0.00    0.00      -0.65    3.59   -0.28
#  57   -1.47   -0.06    0.00    0.25   -0.02    0.00    0.00      -1.29    4.35   -0.28
#  58   -0.04   -0.20    0.08    0.09   -0.03    0.00    0.00      -0.10    0.66   -0.20
#  59   -0.06   -0.07    0.01    0.13   -0.02    0.00    0.00      -0.01    1.83   -0.28
#  60   -0.02   -0.02    0.00    0.02   -0.01    0.00    0.00      -0.03    0.77   -0.28
#  61   -0.27   -0.01    0.00    0.03   -0.01    0.00    0.00      -0.26    1.36   -0.27
#  62   -0.48   -0.02    0.00    0.04   -0.01    0.00    0.00      -0.47    1.66   -0.28
#  63   -0.31   -0.07    0.00    0.06   -0.01    0.00    0.00      -0.33    1.07   -0.28
#  64   -1.84   -0.39    0.16    0.22   -0.07    0.00    0.00      -1.92    0.91   -0.28
#  65   -0.79   -0.39    0.11    0.37   -0.08    0.00    0.00      -0.79    1.26   -0.28
#  66    0.02   -0.36    0.44    0.27   -0.04    0.00    0.00       0.34    1.94   -0.28
#  67   -0.41   -0.07    0.00    0.04   -0.01    0.00    0.00      -0.44    0.68   -0.21
#  68   -1.20   -0.04    0.00    0.04   -0.01    0.00    0.00      -1.20    1.18   -0.20
#  69   -2.94   -0.18    0.03    0.61   -0.04    0.00    0.00      -2.52    3.94   -0.27
#  70   -2.74   -0.28    0.06    0.90   -0.06    0.00    0.00      -2.11    3.77   -0.23

@<TRIPOS>MOLECULE
          T538802        16
   70    74     0     0     0



@<TRIPOS>ATOM
      1 C1         -0.4385    -4.9325    91.9568 C.3        1          -0.1553
      2 C2          0.1560    -4.1254    93.1126 C.3        1          -0.0927
      3 C3         -0.7760    -2.9610    93.4541 C.3        1          -0.1510
      4 C4          0.3135    -5.0287    94.3375 C.3        1          -0.1301
      5 C5          1.2456    -6.1929    93.9960 C.3        1           0.1105
      6 N1          2.5564    -5.6699    93.6030 N.am       1          -0.6988
      7 C6          3.6562    -6.0129    94.3026 C.2        1           0.5065
      8 O1          3.5607    -6.7545    95.2574 O.2        1          -0.5231
      9 C7          5.0022    -5.4759    93.8990 C.3        1           0.0050
     10 C8          6.0714    -5.9303    94.8960 C.3        1          -0.0567
     11 C9          6.2915    -7.3988    94.6417 C.2        1          -0.1587
     12 C10         6.0608    -7.9877    93.4461 C.2        1           0.0474
     13 N2          6.3585    -9.3234    93.5428 N.pl3      1          -0.5564
     14 C11         6.7937    -9.6205    94.8030 C.ar       1           0.1128
     15 C12         7.2274   -10.8094    95.3857 C.ar       1          -0.0947
     16 C13         7.5990   -10.7541    96.7188 C.ar       1          -0.0555
     17 Br1         8.1967   -12.3350    97.5671 Br         1          -0.0277
     18 C14         7.5468    -9.5791    97.4530 C.ar       1          -0.1108
     19 C15         7.1308    -8.3925    96.9012 C.ar       1          -0.0545
     20 C16         6.7590    -8.4186    95.5534 C.ar       1          -0.0835
     21 C17         5.5674    -7.2480    92.2325 C.3        1           0.1478
     22 C18         4.2646    -7.8553    91.7159 C.3        1          -0.1370
     23 C19         4.4848    -9.2465    91.1268 C.3        1           0.0564
     24 N3          5.4882    -9.1849    90.0582 N.3        1          -0.5292
     25 C20         5.6216   -10.4814    89.3813 C.3        1           0.0959
     26 C21         6.4886   -11.3939    90.2099 C.ar       1          -0.0917
     27 C22         7.8576   -11.4083    90.0188 C.ar       1          -0.0951
     28 C23         8.6528   -12.2453    90.7788 C.ar       1          -0.1168
     29 C24         8.0793   -13.0677    91.7304 C.ar       1          -0.1111
     30 C25         6.7103   -13.0527    91.9222 C.ar       1          -0.1183
     31 C26         5.9155   -12.2126    91.1650 C.ar       1          -0.1185
     32 C27         6.7805    -8.7252    90.5820 C.3        1           0.0493
     33 C28         6.6407    -7.3115    91.1349 C.3        1          -0.1318
     34 N4          5.3497    -5.8292    92.5336 N.4        1          -0.4848
     35 H1          4.6179    -5.4865    91.9096 H          1           0.4347
     36 H2          6.1951    -5.3212    92.2692 H          1           0.4413
     37 H3          0.2256    -5.7621    91.7136 H          1           0.0573
     38 H4         -1.4138    -5.3217    92.2493 H          1           0.0613
     39 H5         -0.5508    -4.2891    91.0843 H          1           0.0552
     40 H6          1.1313    -3.7363    92.8203 H          1           0.0752
     41 H7         -0.3524    -2.3860    94.2776 H          1           0.0571
     42 H8         -0.8883    -2.3175    92.5816 H          1           0.0566
     43 H9         -1.7514    -3.3501    93.7467 H          1           0.0614
     44 H10         0.7371    -4.4537    95.1610 H          1           0.0739
     45 H11        -0.6618    -5.4177    94.6300 H          1           0.0747
     46 H12         1.3580    -6.8364    94.8686 H          1           0.0842
     47 H13         0.8221    -6.7680    93.1726 H          1           0.0804
     48 H14         2.6329    -5.0767    92.8393 H          1           0.4105
     49 H15         4.9446    -4.3716    93.9618 H          1           0.1682
     50 H16         6.9975    -5.3795    94.7323 H          1           0.1275
     51 H17         5.7212    -5.7759    95.9169 H          1           0.1101
     52 H18         6.2807    -9.9725    92.8285 H          1           0.4200
     53 H19         7.2732   -11.7312    94.8250 H          1           0.1456
     54 H20         7.8423    -9.5978    98.4914 H          1           0.1394
     55 H21         7.0922    -7.4825    97.4809 H          1           0.1453
     56 H22         3.5439    -7.9364    92.5333 H          1           0.1023
     57 H23         3.8443    -7.2015    90.9459 H          1           0.1094
     58 H24         4.8007    -9.9400    91.9007 H          1           0.0380
     59 H25         3.5405    -9.6068    90.7036 H          1           0.1062
     60 H26         4.6358   -10.9299    89.2578 H          1           0.0492
     61 H27         6.0793   -10.3351    88.4028 H          1           0.0945
     62 H28         8.3057   -10.7657    89.2754 H          1           0.1236
     63 H29         9.7224   -12.2570    90.6290 H          1           0.1259
     64 H30         8.7005   -13.7222    92.3238 H          1           0.1254
     65 H31         6.2620   -13.6955    92.6653 H          1           0.1242
     66 H32         4.8463   -12.1982    91.3174 H          1           0.1159
     67 H33         7.1279    -9.4026    91.3585 H          1           0.0424
     68 H34         7.5110    -8.7243    89.7672 H          1           0.1098
     69 H35         6.3626    -6.6273    90.3304 H          1           0.1083
     70 H36         7.5949    -6.9887    91.5583 H          1           0.0971
@<TRIPOS>BOND
     1    1    2 1
     2    1   37 1
     3    1   38 1
     4    1   39 1
     5    2    3 1
     6    2    4 1
     7    2   40 1
     8    3   41 1
     9    3   42 1
    10    3   43 1
    11    4    5 1
    12    4   44 1
    13    4   45 1
    14    5    6 1
    15    5   46 1
    16    5   47 1
    17    6    7 am
    18    6   48 1
    19    7    8 2
    20    7    9 1
    21    9   34 1
    22    9   10 1
    23    9   49 1
    24   10   11 1
    25   10   50 1
    26   10   51 1
    27   11   20 1
    28   11   12 2
    29   12   13 1
    30   12   21 1
    31   13   14 1
    32   13   52 1
    33   14   20 ar
    34   14   15 ar
    35   15   16 ar
    36   15   53 1
    37   16   17 1
    38   16   18 ar
    39   18   19 ar
    40   18   54 1
    41   19   20 ar
    42   19   55 1
    43   21   33 1
    44   21   22 1
    45   21   34 1
    46   22   23 1
    47   22   56 1
    48   22   57 1
    49   23   24 1
    50   23   58 1
    51   23   59 1
    52   24   25 1
    53   24   32 1
    54   25   26 1
    55   25   60 1
    56   25   61 1
    57   26   31 ar
    58   26   27 ar
    59   27   28 ar
    60   27   62 1
    61   28   29 ar
    62   28   63 1
    63   29   30 ar
    64   29   64 1
    65   30   31 ar
    66   30   65 1
    67   31   66 1
    68   32   33 1
    69   32   67 1
    70   32   68 1
    71   33   69 1
    72   33   70 1
    73   34   35 1
    74   34   36 1
##########                 Name:              T541770
##########          Protonation:                   60
##########               SMILES:   (cc1)C[NH+]2CC[C@@H](CC2)Oc3ccc(cc3)C[NH+]4C[C@H](CC4)NC(=O)c5cc(c(cc5)Cl)Cl
##########            Long Name:   in-1-ium-4-yl)oxyphenyl]methyl]pyrrolidin-1-ium-3-yl]-3,4-dichloro-benzamide
##########          FlexRecCode: 1
##########               Number:                  340
##########   Ligand Source File: /raidb/db2/rgc/tcams/tcams-0002214.db2.gz
##########           GlobalRank: 59
##########                 Rank:                    1
##########               Setnum:                  376
##########             Matchnum:                  903
##########                Cloud:                    1
##########        Electrostatic:           -45.254333
##########        Van der Waals:           -30.427771
##########  Ligand Polar Desolv:            10.202376
########## Ligand Apolar Desolv:            -4.257379
##########      Internal Energy:             0.000000
##########      Receptor Energy: 0.0
########## Receptor Desolvation:             0.000000
########## Receptor Hydrophobic:             0.000000
##########         Total Energy: -69.74
##########        Ligand Charge:             2.000000
##########            Arbitrary:    +999.9990
##########     heavy atom count:   37
##########           pose count:    1
##########        Ligand Energy:             0.000000
# num electro vdwattr vdwrepu polsolv apolsol rdesolv rhydroe totalscore fullpol fullapo
#   1    0.18   -4.15    1.68   -0.52   -0.54    0.00    0.00      -3.35   -0.92   -0.95
#   2    0.01   -1.64    0.40   -0.27   -0.14    0.00    0.00      -1.65   -0.61   -0.30
#   3    1.18   -1.61    0.29   -0.75   -0.21    0.00    0.00      -1.10   -1.61   -0.46
#   4    0.40   -1.27    0.11   -0.35   -0.17    0.00    0.00      -1.28   -0.93   -0.46
#   5    0.77   -1.41    0.30   -0.76   -0.14    0.00    0.00      -1.23   -2.26   -0.41
#   6    0.13   -1.92    0.62   -0.19   -0.15    0.00    0.00      -1.52   -0.55   -0.43
#   7    0.22   -1.51    0.19   -0.42   -0.12    0.00    0.00      -1.64   -1.00   -0.30
#   8    0.26   -4.22    1.95   -0.43   -0.49    0.00    0.00      -2.93   -0.83   -0.95
#   9   -3.24   -1.43    0.71    3.25   -0.18    0.00    0.00      -0.89   11.92   -0.65
#  10    1.87   -1.17    0.37   -2.18    0.09    0.00    0.00      -1.02   -9.52    0.38
#  11    8.55   -0.95    0.14   -5.29    0.56    0.00    0.00       3.00  -19.37    2.06
#  12   -2.24   -0.43    0.02    0.73   -0.07    0.00    0.00      -1.99    3.39   -0.32
#  13    3.89   -0.57    0.02   -1.74   -0.09    0.00    0.00       1.51   -5.41   -0.29
#  14    0.17   -0.74    0.08    0.21   -0.13    0.00    0.00      -0.40    0.65   -0.39
#  15   11.48   -1.06    0.22   -4.24    0.13    0.00    0.00       6.53  -14.77    0.45
#  16  -18.61   -0.05    0.00    6.78    0.19    0.00    0.00     -11.69   20.33    0.56
#  17   -0.73   -0.45    0.04    0.51   -0.07    0.00    0.00      -0.71    2.30   -0.32
#  18    2.78   -0.55    0.03   -1.19   -0.07    0.00    0.00       1.00   -5.77   -0.34
#  19    0.33   -0.23    0.00   -0.20   -0.04    0.00    0.00      -0.13   -2.14   -0.41
#  20    1.17   -0.16    0.00   -0.48   -0.03    0.00    0.00       0.50   -7.43   -0.39
#  21   -1.33   -0.28    0.01    0.44   -0.04    0.00    0.00      -1.21    3.80   -0.31
#  22    1.87   -0.22    0.01   -1.10    0.08    0.00    0.00       0.64  -10.04    0.76
#  23   -0.36   -0.11    0.00    0.16   -0.01    0.00    0.00      -0.31    2.14   -0.09
#  24    1.59   -0.13    0.00   -0.47   -0.02    0.00    0.00       0.97   -6.06   -0.22
#  25    0.04   -0.23    0.01    0.05   -0.05    0.00    0.00      -0.19    0.35   -0.37
#  26    1.72   -0.31    0.01   -2.17    0.04    0.00    0.00      -0.70  -13.64    0.27
#  27   -1.00    0.00    0.00    0.74    0.02    0.00    0.00      -0.24   18.02    0.54
#  28   -0.47   -0.52    0.04    0.62   -0.09    0.00    0.00      -0.41    2.39   -0.36
#  29    0.83   -0.66    0.05   -0.78   -0.08    0.00    0.00      -0.64   -3.28   -0.33
#  30    1.21   -1.01    0.08   -0.85   -0.16    0.00    0.00      -0.72   -2.42   -0.45
#  31    0.78   -1.59    0.33   -1.41   -0.19    0.00    0.00      -2.08   -3.52   -0.47
#  32    0.06   -1.27    0.36   -0.89   -0.14    0.00    0.00      -1.87   -3.00   -0.47
#  33    0.06   -0.46    0.02   -0.64   -0.09    0.00    0.00      -1.10   -3.46   -0.47
#  34    0.17   -0.46    0.02   -0.41   -0.06    0.00    0.00      -0.73   -2.40   -0.36
#  35    0.05   -0.75    0.50   -0.01   -0.06    0.00    0.00      -0.27   -0.06   -0.34
#  36    0.32   -0.25    0.05   -0.51   -0.03    0.00    0.00      -0.42   -4.54   -0.24
#  37    2.34   -0.89    0.12   -1.49   -0.11    0.00    0.00      -0.03   -6.19   -0.46
#  38    1.17   -1.46    0.38   -0.56   -0.13    0.00    0.00      -0.60   -1.96   -0.45
#  39    0.65   -0.63    0.13    0.09   -0.11    0.00    0.00       0.13    0.37   -0.48
#  40   -2.58   -0.33    0.03    0.78   -0.11    0.00    0.00      -2.20    1.98   -0.28
#  41   -2.34   -0.22    0.01    0.48   -0.06    0.00    0.00      -2.13    2.17   -0.27
#  42    0.30   -0.64    0.47    1.74   -0.06    0.00    0.00       1.81    6.08   -0.22
#  43   -5.73   -0.01    0.00    2.60    0.08    0.00    0.00      -3.06   13.97    0.43
#  44   -1.12   -0.14    0.02    0.32   -0.03    0.00    0.00      -0.95    2.72   -0.26
#  45   -2.81   -0.17    0.01    0.25   -0.05    0.00    0.00      -2.78    1.44   -0.28
#  46   -3.05   -0.24    0.01    0.79   -0.07    0.00    0.00      -2.55    3.39   -0.28
#  47   -2.68   -0.14    0.01    0.88   -0.03    0.00    0.00      -1.96    6.02   -0.21
#  48   -4.08   -0.46    0.18    2.13   -0.09    0.00    0.00      -2.31    6.30   -0.28
#  49   -1.48   -0.07    0.00    0.47   -0.02    0.00    0.00      -1.10    7.63   -0.28
#  50   -1.55   -0.25    0.10    1.19   -0.05    0.00    0.00      -0.56    6.62   -0.27
#  51   -0.48   -0.04    0.00    0.23   -0.01    0.00    0.00      -0.30    6.13   -0.24
#  52   -0.39   -0.02    0.00    0.12    0.00    0.00    0.00      -0.28    4.81   -0.19
#  53   -0.38   -0.02    0.00    0.07   -0.01    0.00    0.00      -0.33    2.88   -0.22
#  54   -1.46   -0.05    0.00    0.16   -0.01    0.00    0.00      -1.36    3.51   -0.24
#  55   -0.69   -0.03    0.00    0.16   -0.01    0.00    0.00      -0.57    5.05   -0.28
#  56   -2.40   -0.09    0.00    0.41   -0.02    0.00    0.00      -2.11    4.89   -0.26
#  57   -1.96   -0.09    0.00    0.60   -0.02    0.00    0.00      -1.47    7.04   -0.28
#  58   -1.08   -0.24    0.04    1.58   -0.07    0.00    0.00       0.22    6.26   -0.28
#  59   -3.15   -0.21    0.02    1.68   -0.06    0.00    0.00      -1.72    7.21   -0.27
#  60   -2.53   -0.27    0.04    1.62   -0.08    0.00    0.00      -1.22    5.55   -0.28
#  61   -0.66   -0.64    0.27    0.80   -0.12    0.00    0.00      -0.36    1.84   -0.28
#  62    0.19   -0.62    0.66    0.30   -0.08    0.00    0.00       0.44    1.03   -0.28
#  63   -0.03   -0.05    0.00    0.10   -0.01    0.00    0.00       0.00    1.98   -0.28
#  64   -0.22   -0.08    0.00    0.41   -0.02    0.00    0.00       0.10    5.40   -0.28
#  65   -1.58   -0.39    0.35    0.86   -0.04    0.00    0.00      -0.81    5.00   -0.26
#  66   -0.41   -0.46    0.67    0.71   -0.03    0.00    0.00       0.46    4.00   -0.19
#  67   -0.19   -0.03    0.00    0.19   -0.01    0.00    0.00      -0.05    4.64   -0.28
#  68   -0.28   -0.12    0.04    0.24   -0.03    0.00    0.00      -0.15    2.55   -0.28
#  69   -3.28   -0.28    0.06    0.60   -0.06    0.00    0.00      -2.96    2.82   -0.28
#  70   -6.39   -1.02    1.50    2.13   -0.10    0.00    0.00      -3.88    5.96   -0.28
#  71   -5.74   -0.47    0.51    1.60   -0.05    0.00    0.00      -4.15    7.80   -0.26
#  72   -3.30   -0.11    0.01    0.72   -0.03    0.00    0.00      -2.70    7.49   -0.26

@<TRIPOS>MOLECULE
          T541770        60
   72    76     0     0     0



@<TRIPOS>ATOM
      1 Cl1         9.1298   -11.4338    98.6485 Cl         1          -0.0203
      2 C1          8.0724   -10.6330    97.5287 C.ar       1          -0.0006
      3 C2          7.8183    -9.2785    97.6679 C.ar       1          -0.1005
      4 C3          6.9793    -8.6367    96.7817 C.ar       1          -0.0359
      5 C4          6.3852    -9.3544    95.7416 C.ar       1          -0.1362
      6 C5          6.6446   -10.7191    95.6052 C.ar       1          -0.0668
      7 C6          7.4900   -11.3500    96.4955 C.ar       1          -0.0425
      8 Cl2         7.8196   -13.0459    96.3242 Cl         1          -0.0288
      9 C7          5.4848    -8.6718    94.7891 C.2        1           0.5772
     10 O1          5.3574    -9.1008    93.6588 O.2        1          -0.5101
     11 N1          4.8048    -7.5736    95.1736 N.am       1          -0.7273
     12 C8          3.9122    -6.8968    94.2294 C.3        1           0.1355
     13 C9          3.3453    -5.5974    94.8184 C.3        1          -0.1596
     14 C10         2.8019    -4.9368    93.5445 C.3        1          -0.0067
     15 N2          3.6825    -5.3903    92.4546 N.4        1          -0.3867
     16 H1          4.1378    -4.5973    92.0281 H          1           0.4280
     17 C11         2.8982    -6.1178    91.4477 C.3        1           0.0463
     18 C12         3.8083    -6.5770    90.3378 C.ar       1          -0.1903
     19 C13         3.7006    -7.8646    89.8451 C.ar       1          -0.0479
     20 C14         4.5335    -8.2879    88.8276 C.ar       1          -0.2086
     21 C15         5.4782    -7.4200    88.2997 C.ar       1           0.1575
     22 O2          6.2985    -7.8340    87.2984 O.3        1          -0.3041
     23 C16         7.1465    -8.9506    87.5742 C.3        1           0.0688
     24 C17         8.0766    -8.6111    88.7425 C.3        1          -0.1738
     25 C18         8.9832    -7.4449    88.3432 C.3        1          -0.0032
     26 N3          9.7837    -7.8215    87.1719 N.4        1          -0.3817
     27 H2         10.3130    -8.6547    87.3814 H          1           0.4221
     28 C19        10.7062    -6.7278    86.8389 C.3        1           0.0460
     29 C20        11.9013    -6.7819    87.7554 C.ar       1          -0.1654
     30 C21        11.8826    -6.0980    88.9566 C.ar       1          -0.0935
     31 C22        12.9788    -6.1478    89.7974 C.ar       1          -0.1114
     32 C23        14.0934    -6.8815    89.4371 C.ar       1          -0.0811
     33 C24        14.1117    -7.5662    88.2364 C.ar       1          -0.1126
     34 C25        13.0139    -7.5200    87.3976 C.ar       1          -0.0987
     35 C26         8.9015    -8.0789    86.0275 C.3        1          -0.0124
     36 C27         7.9917    -9.2696    86.3376 C.3        1          -0.1375
     37 C28         5.5840    -6.1285    88.7954 C.ar       1          -0.1431
     38 C29         4.7454    -5.7085    89.8097 C.ar       1          -0.0481
     39 C30         4.6893    -6.2845    93.0549 C.3        1          -0.0229
     40 H3          8.2782    -8.7239    98.4725 H          1           0.1582
     41 H4          6.7817    -7.5807    96.8920 H          1           0.1559
     42 H5          6.1880   -11.2793    94.8027 H          1           0.1411
     43 H6          4.9063    -7.2312    96.0754 H          1           0.4079
     44 H7          3.1200    -7.5612    93.8842 H          1           0.1311
     45 H8          2.5450    -5.8022    95.5293 H          1           0.1248
     46 H9          4.1312    -4.9937    95.2721 H          1           0.1044
     47 H10         1.7775    -5.2604    93.3602 H          1           0.1340
     48 H11         2.8443    -3.8514    93.6359 H          1           0.1360
     49 H12         2.4254    -6.9835    91.9115 H          1           0.1400
     50 H13         2.1309    -5.4598    91.0397 H          1           0.1386
     51 H14         2.9649    -8.5398    90.2564 H          1           0.1368
     52 H15         4.4495    -9.2939    88.4436 H          1           0.1403
     53 H16         6.5366    -9.8165    87.8320 H          1           0.1053
     54 H17         7.4818    -8.3288    89.6111 H          1           0.1167
     55 H18         8.6876    -9.4803    88.9857 H          1           0.1094
     56 H19         8.3713    -6.5762    88.1003 H          1           0.1328
     57 H20         9.6466    -7.2004    89.1728 H          1           0.1358
     58 H21        11.0360    -6.8327    85.8053 H          1           0.1355
     59 H22        10.1965    -5.7723    86.9625 H          1           0.1383
     60 H23        11.0117    -5.5247    89.2381 H          1           0.1313
     61 H24        12.9644    -5.6129    90.7355 H          1           0.1378
     62 H25        14.9500    -6.9199    90.0936 H          1           0.1378
     63 H26        14.9827    -8.1393    87.9547 H          1           0.1372
     64 H27        13.0268    -8.0580    86.4611 H          1           0.1300
     65 H28         8.2913    -7.1966    85.8339 H          1           0.1347
     66 H29         9.5045    -8.3027    85.1474 H          1           0.1379
     67 H30         8.6009   -10.1525    86.5310 H          1           0.1118
     68 H31         7.3362    -9.4580    85.4874 H          1           0.1232
     69 H32         6.3189    -5.4510    88.3862 H          1           0.1446
     70 H33         4.8246    -4.7020    90.1931 H          1           0.1426
     71 H34         5.5500    -5.7183    93.4107 H          1           0.1387
     72 H35         4.9968    -7.0549    92.3478 H          1           0.1466
@<TRIPOS>BOND
     1    1    2 1
     2    2    7 ar
     3    2    3 ar
     4    3    4 ar
     5    3   40 1
     6    4    5 ar
     7    4   41 1
     8    5    6 ar
     9    5    9 1
    10    6    7 ar
    11    6   42 1
    12    7    8 1
    13    9   10 2
    14    9   11 am
    15   11   12 1
    16   11   43 1
    17   12   39 1
    18   12   13 1
    19   12   44 1
    20   13   14 1
    21   13   45 1
    22   13   46 1
    23   14   15 1
    24   14   47 1
    25   14   48 1
    26   15   16 1
    27   15   17 1
    28   15   39 1
    29   17   18 1
    30   17   49 1
    31   17   50 1
    32   18   38 ar
    33   18   19 ar
    34   19   20 ar
    35   19   51 1
    36   20   21 ar
    37   20   52 1
    38   21   22 1
    39   21   37 ar
    40   22   23 1
    41   23   36 1
    42   23   24 1
    43   23   53 1
    44   24   25 1
    45   24   54 1
    46   24   55 1
    47   25   26 1
    48   25   56 1
    49   25   57 1
    50   26   27 1
    51   26   28 1
    52   26   35 1
    53   28   29 1
    54   28   58 1
    55   28   59 1
    56   29   34 ar
    57   29   30 ar
    58   30   31 ar
    59   30   60 1
    60   31   32 ar
    61   31   61 1
    62   32   33 ar
    63   32   62 1
    64   33   34 ar
    65   33   63 1
    66   34   64 1
    67   35   36 1
    68   35   65 1
    69   35   66 1
    70   36   67 1
    71   36   68 1
    72   37   38 ar
    73   37   69 1
    74   38   70 1
    75   39   71 1
    76   39   72 1
##########                 Name:              T528950
##########          Protonation:                   76
##########               SMILES:   c1cc(cc(c1)NC(=O)Nc2cccc(c2)NC(=[NH2+])N)NC(=[NH2+])N
##########            Long Name:   azaniumylidene)methyl]amino]phenyl]carbamoylamino]anilino]methylene]ammonium
##########          FlexRecCode: 1
##########               Number:                  243
##########   Ligand Source File: /raidb/db2/rgc/tcams/tcams-0000561.db2.gz
##########           GlobalRank: 60
##########                 Rank:                    1
##########               Setnum:                   43
##########             Matchnum:                 2883
##########                Cloud:                    1
##########        Electrostatic:           -52.445034
##########        Van der Waals:           -21.177158
##########  Ligand Polar Desolv:             5.191608
########## Ligand Apolar Desolv:            -1.216642
##########      Internal Energy:             0.000000
##########      Receptor Energy: 0.0
########## Receptor Desolvation:             0.000000
########## Receptor Hydrophobic:             0.000000
##########         Total Energy: -69.65
##########        Ligand Charge:             2.000000
##########            Arbitrary:    +999.9990
##########     heavy atom count:   24
##########           pose count:    1
##########        Ligand Energy:             0.000000
# num electro vdwattr vdwrepu polsolv apolsol rdesolv rhydroe totalscore fullpol fullapo
#   1   24.42   -1.32    0.20  -10.41    0.33    0.00    0.00      13.22  -26.59    0.85
#   2  -17.06   -1.16    0.12    9.23   -1.79    0.00    0.00     -10.67   25.07   -4.86
#   3   18.90   -1.10    0.07  -10.00    0.34    0.00    0.00       8.21  -27.13    0.92
#   4  -12.31   -0.01    0.00    2.94    0.10    0.00    0.00      -9.28   16.83    0.59
#   5   -9.92   -0.02    0.00    4.21    0.15    0.00    0.00      -5.58   16.68    0.59
#   6   10.55   -1.57    0.27   -8.63    0.44    0.00    0.00       1.07  -20.48    1.05
#   7   -1.62   -1.30    0.11    1.87   -0.27    0.00    0.00      -1.21    4.42   -0.64
#   8    1.83   -1.10    0.10   -1.50   -0.10    0.00    0.00      -0.77   -4.47   -0.29
#   9   -1.90   -1.38    0.31    1.47   -0.22    0.00    0.00      -1.72    4.51   -0.67
#  10    5.56   -1.50    0.72   -4.99    0.47    0.00    0.00       0.26  -17.90    1.69
#  11   -6.71   -1.63    1.39    4.29   -0.47    0.00    0.00      -3.12   18.15   -1.99
#  12    8.18   -1.28    0.43   -3.68    0.07    0.00    0.00       3.72  -14.34    0.29
#  13    5.13   -0.81    0.24   -3.25    0.31    0.00    0.00       1.62  -17.76    1.70
#  14   -1.59   -0.41    0.04    0.60   -0.09    0.00    0.00      -1.45    4.45   -0.68
#  15    0.62   -0.17    0.00   -0.29   -0.03    0.00    0.00       0.13   -3.91   -0.46
#  16    0.27   -0.11    0.00   -0.11   -0.02    0.00    0.00       0.03   -2.39   -0.47
#  17    1.02   -0.17    0.00   -0.25   -0.03    0.00    0.00       0.57   -3.89   -0.46
#  18   -1.75   -0.37    0.01    0.66   -0.09    0.00    0.00      -1.54    4.36   -0.62
#  19   15.14   -0.89    0.12   -4.96    0.26    0.00    0.00       9.66  -20.31    1.05
#  20  -16.67   -0.80    0.07    6.48   -1.26    0.00    0.00     -12.18   24.95   -4.86
#  21   11.73   -0.51    0.02   -5.55    0.17    0.00    0.00       5.86  -26.41    0.82
#  22   23.86   -1.71    0.37  -10.17    0.35    0.00    0.00      12.69  -27.02    0.92
#  23  -18.54   -0.06    0.00    6.21    0.22    0.00    0.00     -12.16   16.75    0.59
#  24  -13.24   -0.02    0.00    5.26    0.19    0.00    0.00      -7.81   16.60    0.59
#  25    2.33   -0.62    0.09   -0.83   -0.05    0.00    0.00       0.92   -4.46   -0.29
#  26    1.38   -1.44    0.22   -1.55   -0.19    0.00    0.00      -1.58   -3.86   -0.46
#  27    0.86   -1.79    0.32   -1.26   -0.25    0.00    0.00      -2.12   -2.41   -0.47
#  28    1.75   -1.86    0.27   -2.01   -0.24    0.00    0.00      -2.08   -3.84   -0.46
#  29  -18.42   -0.03    0.00    3.75    0.14    0.00    0.00     -14.57   16.13    0.59
#  30  -12.61   -0.02    0.00    4.24    0.11    0.00    0.00      -8.27   13.80    0.36
#  31   -7.45   -0.03    0.00    6.27    0.24    0.00    0.00      -0.98   15.61    0.59
#  32   -1.58   -0.16    0.01    0.62   -0.03    0.00    0.00      -1.14    4.16   -0.19
#  33   -3.34   -0.01    0.00    1.89    0.09    0.00    0.00      -1.37   12.66    0.59
#  34   -2.84   -0.01    0.00    1.28    0.06    0.00    0.00      -1.51   12.63    0.59
#  35   -0.49   -0.03    0.00    0.11   -0.01    0.00    0.00      -0.42    3.66   -0.28
#  36   -0.38   -0.01    0.00    0.07   -0.01    0.00    0.00      -0.33    3.26   -0.28
#  37   -1.05   -0.04    0.00    0.17   -0.01    0.00    0.00      -0.93    4.20   -0.28
#  38  -15.29   -0.03    0.00    4.16    0.16    0.00    0.00     -11.00   15.48    0.59
#  39   -4.13    0.00    0.00    0.71    0.02    0.00    0.00      -3.40   13.76    0.40
#  40   -7.47   -0.01    0.00    2.67    0.10    0.00    0.00      -4.71   16.07    0.59
#  41   -2.88   -0.33    0.14    0.95   -0.04    0.00    0.00      -2.17    4.21   -0.17
#  42   -1.56   -0.24    0.02    0.92   -0.07    0.00    0.00      -0.93    3.64   -0.28
#  43   -2.82   -0.43    0.08    1.45   -0.12    0.00    0.00      -1.84    3.32   -0.28
#  44   -2.38   -0.51    0.09    2.17   -0.14    0.00    0.00      -0.77    4.28   -0.28

@<TRIPOS>MOLECULE
          T528950        76
   44    45     0     0     0



@<TRIPOS>ATOM
      1 N1          6.0632    -5.9169    94.9069 N.pl3      1          -0.7922
      2 C1          5.1138    -6.1117    95.8207 C.cat      1           0.7465
      3 N2          3.8770    -5.6686    95.6009 N.pl3      1          -0.7849
      4 H1          3.6677    -5.2042    94.7755 H          1           0.4448
      5 H2          3.1857    -5.8105    96.2664 H          1           0.4436
      6 N3          5.4094    -6.7675    96.9864 N.pl3      1          -0.6345
      7 C2          6.4121    -7.7433    97.0053 C.ar       1           0.1202
      8 C3          6.6776    -8.4885    95.8652 C.ar       1          -0.1647
      9 C4          7.6724    -9.4551    95.8880 C.ar       1           0.1946
     10 N4          7.9435   -10.2084    94.7403 N.am       1          -0.6807
     11 C5          7.7412    -9.6734    93.5199 C.2        1           0.7077
     12 O1          7.3232    -8.5364    93.4161 O.2        1          -0.5584
     13 N5          8.0023   -10.3989    92.4144 N.am       1          -0.6776
     14 C6          7.7922    -9.8435    91.1472 C.ar       1           0.1927
     15 C7          7.4410   -10.6603    90.0795 C.ar       1          -0.1274
     16 C8          7.2339   -10.1129    88.8282 C.ar       1          -0.0591
     17 C9          7.3752    -8.7522    88.6342 C.ar       1          -0.1220
     18 C10         7.7261    -7.9301    89.6975 C.ar       1           0.1180
     19 N6          7.8694    -6.5524    89.5001 N.pl3      1          -0.6336
     20 C11         8.2743    -6.0733    88.2822 C.cat      1           0.7468
     21 N7          9.0737    -6.8075    87.5101 N.pl3      1          -0.7914
     22 N8          7.8688    -4.8733    87.8704 N.pl3      1          -0.7855
     23 H3          7.2869    -4.3386    88.4329 H          1           0.4446
     24 H4          8.1555    -4.5340    87.0081 H          1           0.4434
     25 C12         7.9288    -8.4761    90.9570 C.ar       1          -0.1651
     26 C13         8.3996    -9.6742    97.0514 C.ar       1          -0.1242
     27 C14         8.1325    -8.9312    98.1848 C.ar       1          -0.0589
     28 C15         7.1464    -7.9633    98.1635 C.ar       1          -0.1192
     29 H5          5.8545    -5.4507    94.0824 H          1           0.4409
     30 H6          6.9643    -6.2376    95.0679 H          1           0.4398
     31 H7          4.9236    -6.5554    97.7989 H          1           0.4458
     32 H8          6.1108    -8.3166    94.9621 H          1           0.1421
     33 H9          8.2770   -11.1155    94.8230 H          1           0.4215
     34 H10         8.3359   -11.3060    92.4971 H          1           0.4216
     35 H11         7.3301   -11.7242    90.2280 H          1           0.1454
     36 H12         6.9613   -10.7499    87.9998 H          1           0.1525
     37 H13         7.2129    -8.3272    87.6546 H          1           0.1451
     38 H14         7.6819    -5.9364    90.2256 H          1           0.4454
     39 H15         9.3690    -7.6814    87.8101 H          1           0.4406
     40 H16         9.3603    -6.4683    86.6477 H          1           0.4407
     41 H17         8.1974    -7.8387    91.7864 H          1           0.1497
     42 H18         9.1742   -10.4267    97.0698 H          1           0.1460
     43 H19         8.6989    -9.1036    99.0881 H          1           0.1531
     44 H20         6.9435    -7.3804    99.0498 H          1           0.1460
@<TRIPOS>BOND
     1    1    2 1
     2    1   29 1
     3    1   30 1
     4    2    3 2
     5    2    6 1
     6    3    4 1
     7    3    5 1
     8    6    7 1
     9    6   31 1
    10    7   28 ar
    11    7    8 ar
    12    8    9 ar
    13    8   32 1
    14    9   10 1
    15    9   26 ar
    16   10   11 am
    17   10   33 1
    18   11   12 2
    19   11   13 am
    20   13   14 1
    21   13   34 1
    22   14   25 ar
    23   14   15 ar
    24   15   16 ar
    25   15   35 1
    26   16   17 ar
    27   16   36 1
    28   17   18 ar
    29   17   37 1
    30   18   19 1
    31   18   25 ar
    32   19   20 1
    33   19   38 1
    34   20   21 1
    35   20   22 2
    36   21   39 1
    37   21   40 1
    38   22   23 1
    39   22   24 1
    40   25   41 1
    41   26   27 ar
    42   26   42 1
    43   27   28 ar
    44   27   43 1
    45   28   44 1
##########                 Name:              T525001
##########          Protonation:                   33
##########               SMILES:   c1ccc(cc1)c2cc(c3ccccc3[nH+]2)NCCCCNc4cc([nH+]c5c4cccc5)c6ccccc6
##########            Long Name:   N,N'-bis(2-phenylquinolin-1-ium-4-yl)butane-1,4-diamine
##########          FlexRecCode: 1
##########               Number:                   18
##########   Ligand Source File: /raidb/db2/rgc/tcams/tcams-0000092.db2.gz
##########           GlobalRank: 62
##########                 Rank:                    1
##########               Setnum:                   52
##########             Matchnum:                  127
##########                Cloud:                    1
##########        Electrostatic:           -34.285389
##########        Van der Waals:           -38.401150
##########  Ligand Polar Desolv:             8.784663
########## Ligand Apolar Desolv:            -5.738776
##########      Internal Energy:             0.000000
##########      Receptor Energy: 0.0
########## Receptor Desolvation:             0.000000
########## Receptor Hydrophobic:             0.000000
##########         Total Energy: -69.64
##########        Ligand Charge:             2.000000
##########            Arbitrary:    +999.9990
##########     heavy atom count:   38
##########           pose count:    1
##########        Ligand Energy:             0.000000
# num electro vdwattr vdwrepu polsolv apolsol rdesolv rhydroe totalscore fullpol fullapo
#   1    2.88   -0.45    0.05   -0.92   -0.05    0.00    0.00       1.51   -4.37   -0.22
#   2    1.68   -0.21    0.01   -0.59   -0.03    0.00    0.00       0.86   -4.37   -0.22
#   3   -0.99   -0.13    0.00    0.21   -0.03    0.00    0.00      -0.93    2.76   -0.38
#   4   10.62   -0.43    0.01   -3.54    0.28    0.00    0.00       6.95  -21.14    1.66
#   5   -3.72   -0.63    0.04    2.26   -0.15    0.00    0.00      -2.21   10.57   -0.72
#   6    1.72   -1.31    0.24   -1.37   -0.13    0.00    0.00      -0.85   -4.06   -0.40
#   7    1.75   -1.50    0.19   -0.64   -0.18    0.00    0.00      -0.38   -1.57   -0.45
#   8    3.78   -2.89    1.19   -1.80   -0.23    0.00    0.00       0.04   -3.68   -0.47
#   9    0.69   -3.08    1.59   -0.95   -0.27    0.00    0.00      -2.01   -1.65   -0.47
#  10    1.34   -2.72    1.05   -2.07   -0.23    0.00    0.00      -2.64   -4.08   -0.46
#  11   -0.83   -2.01    0.63    1.69   -0.29    0.00    0.00      -0.81    4.30   -0.73
#  12    1.73   -1.92    0.78   -4.97    0.33    0.00    0.00      -4.04  -13.70    0.92
#  13   -1.22   -0.04    0.00    4.20    0.15    0.00    0.00       3.09   12.50    0.44
#  14   -0.92   -0.90    0.15    1.93   -0.17    0.00    0.00       0.09    8.30   -0.74
#  15    0.86   -0.47    0.02   -1.26   -0.07    0.00    0.00      -0.91   -7.50   -0.41
#  16    0.23   -0.71    0.08   -0.55   -0.08    0.00    0.00      -1.03   -2.68   -0.41
#  17    0.10   -0.62    0.06   -0.31   -0.09    0.00    0.00      -0.85   -1.54   -0.44
#  18    0.14   -0.47    0.02   -0.60   -0.09    0.00    0.00      -0.99   -3.15   -0.47
#  19    0.07   -0.68    0.09   -0.52   -0.10    0.00    0.00      -1.13   -2.52   -0.47
#  20    0.15   -1.15    0.61   -0.66   -0.10    0.00    0.00      -1.14   -3.14   -0.47
#  21    0.15   -0.79    0.12   -0.53   -0.10    0.00    0.00      -1.16   -2.44   -0.44
#  22   -2.12   -0.93    0.34    0.72   -0.10    0.00    0.00      -2.09    2.76   -0.38
#  23   20.91   -1.63    0.62   -6.22    0.49    0.00    0.00      14.17  -21.14    1.66
#  24   -7.76   -1.04    0.12    3.28   -0.22    0.00    0.00      -5.63   10.58   -0.72
#  25    2.99   -0.97    0.06   -1.40   -0.14    0.00    0.00       0.54   -4.06   -0.40
#  26    1.87   -1.17    0.11   -0.59   -0.17    0.00    0.00       0.05   -1.57   -0.45
#  27    3.04   -1.94    0.39   -1.65   -0.21    0.00    0.00      -0.37   -3.68   -0.47
#  28    0.75   -3.90    3.76   -0.83   -0.24    0.00    0.00      -0.46   -1.65   -0.47
#  29    2.89   -3.08    1.66   -1.98   -0.22    0.00    0.00      -0.74   -4.08   -0.46
#  30   -2.96   -1.48    0.23    1.76   -0.30    0.00    0.00      -2.75    4.30   -0.73
#  31    6.29   -1.60    0.20   -6.17    0.41    0.00    0.00      -0.87  -13.70    0.92
#  32   -5.02   -0.04    0.00    5.16    0.18    0.00    0.00       0.28   12.50    0.44
#  33   -3.81   -1.23    0.10    3.14   -0.28    0.00    0.00      -2.08    8.30   -0.74
#  34    3.95   -1.40    0.35   -2.43   -0.13    0.00    0.00       0.34   -7.50   -0.41
#  35    1.27   -1.52    0.24   -1.09   -0.17    0.00    0.00      -1.26   -2.68   -0.41
#  36    0.40   -1.47    0.21   -0.62   -0.18    0.00    0.00      -1.66   -1.54   -0.44
#  37    0.85   -1.61    0.22   -1.71   -0.25    0.00    0.00      -2.49   -3.15   -0.47
#  38    0.56   -2.17    0.60   -1.43   -0.27    0.00    0.00      -2.70   -2.52   -0.47
#  39    1.52   -2.57    1.16   -1.73   -0.26    0.00    0.00      -1.88   -3.14   -0.47
#  40    1.30   -1.97    0.47   -1.30   -0.23    0.00    0.00      -1.73   -2.44   -0.44
#  41   -2.70   -0.29    0.08    0.67   -0.06    0.00    0.00      -2.29    3.07   -0.28
#  42   -1.52   -0.07    0.00    0.23   -0.02    0.00    0.00      -1.39    3.06   -0.28
#  43   -1.08   -0.08    0.00    0.26   -0.02    0.00    0.00      -0.93    3.07   -0.28
#  44   -0.72   -0.04    0.00    0.12   -0.01    0.00    0.00      -0.65    3.07   -0.28
#  45   -0.56   -0.03    0.00    0.11   -0.01    0.00    0.00      -0.48    3.65   -0.27
#  46   -0.69   -0.03    0.00    0.12   -0.01    0.00    0.00      -0.61    3.65   -0.27
#  47   -8.67   -0.01    0.00    1.66    0.05    0.00    0.00      -6.96   14.38    0.45
#  48   -3.94   -0.20    0.01    1.47   -0.05    0.00    0.00      -2.71    5.90   -0.22
#  49   -6.65   -1.27    2.02    1.85   -0.14    0.00    0.00      -4.19    3.81   -0.28
#  50   -2.29   -0.51    0.11    2.02   -0.16    0.00    0.00      -0.83    3.45   -0.28
#  51   -0.83   -0.50    0.11    2.15   -0.13    0.00    0.00       0.79    4.46   -0.28
#  52   -0.75   -0.04    0.00    0.29   -0.01    0.00    0.00      -0.50    7.19   -0.18
#  53   -0.27   -0.12    0.01    0.77   -0.03    0.00    0.00       0.36    6.17   -0.21
#  54   -0.17   -0.07    0.00    0.20   -0.02    0.00    0.00      -0.05    3.54   -0.28
#  55   -0.13   -0.14    0.02    0.32   -0.04    0.00    0.00       0.02    2.09   -0.28
#  56   -0.19   -0.32    0.22    0.39   -0.05    0.00    0.00       0.06    2.35   -0.28
#  57   -0.25   -0.14    0.01    0.62   -0.03    0.00    0.00       0.21    4.28   -0.22
#  58   -1.19   -0.16    0.02    0.48   -0.04    0.00    0.00      -0.88    3.65   -0.27
#  59   -1.90   -1.05    2.14    1.11   -0.08    0.00    0.00       0.21    3.65   -0.27
#  60  -19.72   -0.07    0.01    3.80    0.12    0.00    0.00     -15.85   14.38    0.45
#  61   -5.61   -0.32    0.12    1.36   -0.05    0.00    0.00      -4.51    5.91   -0.22
#  62   -4.58   -0.51    0.16    1.34   -0.10    0.00    0.00      -3.69    3.81   -0.28
#  63   -4.58   -1.36    2.35    1.83   -0.15    0.00    0.00      -1.91    3.45   -0.28
#  64   -2.82   -0.89    0.55    2.39   -0.15    0.00    0.00      -0.92    4.46   -0.28
#  65   -2.38   -0.55    0.46    1.60   -0.04    0.00    0.00      -0.91    7.19   -0.18
#  66   -0.46   -0.27    0.03    1.54   -0.05    0.00    0.00       0.78    6.17   -0.21
#  67   -1.17   -0.31    0.02    1.56   -0.12    0.00    0.00      -0.02    3.54   -0.28
#  68   -0.67   -0.58    0.19    1.17   -0.16    0.00    0.00      -0.06    2.09   -0.28
#  69   -2.51   -0.90    1.17    1.28   -0.15    0.00    0.00      -1.12    2.35   -0.28
#  70   -2.42   -0.39    0.04    2.17   -0.11    0.00    0.00      -0.72    4.28   -0.22

@<TRIPOS>MOLECULE
          T525001        33
   70    75     0     0     0



@<TRIPOS>ATOM
      1 C1          6.8285    -7.5217    91.0869 C.3        1          -0.1332
      2 C2          7.5252    -8.5217    90.1619 C.3        1          -0.1332
      3 C3          7.0345    -8.3168    88.7273 C.3        1           0.0982
      4 N1          7.3462    -6.9522    88.2948 N.pl3      1          -0.6830
      5 C4          6.5305    -6.3135    87.3726 C.ar       1           0.3525
      6 C5          7.0033    -5.2082    86.6227 C.ar       1          -0.1334
      7 C6          8.3079    -4.7239    86.7867 C.ar       1          -0.0623
      8 C7          8.7297    -3.6588    86.0483 C.ar       1          -0.1075
      9 C8          7.8797    -3.0443    85.1321 C.ar       1          -0.0287
     10 C9          6.6064    -3.4895    84.9485 C.ar       1          -0.1450
     11 C10         6.1365    -4.5867    85.6920 C.ar       1           0.1784
     12 N2          4.8904    -5.0429    85.5289 N.ar       1          -0.5135
     13 H1          4.3073    -4.6074    84.8876 H          1           0.4385
     14 C11         4.4344    -6.0720    86.2193 C.ar       1           0.3242
     15 C12         5.2332    -6.7403    87.1536 C.ar       1          -0.2653
     16 C13         3.0428    -6.5340    85.9954 C.ar       1          -0.1234
     17 C14         2.1270    -6.5307    87.0460 C.ar       1          -0.0623
     18 C15         0.8335    -6.9618    86.8318 C.ar       1          -0.1153
     19 C16         0.4456    -7.3969    85.5772 C.ar       1          -0.0656
     20 C17         1.3503    -7.4024    84.5308 C.ar       1          -0.1093
     21 C18         2.6446    -6.9677    84.7319 C.ar       1          -0.0863
     22 C19         7.3193    -7.7266    92.5214 C.3        1           0.0982
     23 N3          6.6521    -6.7692    93.4072 N.pl3      1          -0.6829
     24 C20         6.4157    -7.0996    94.7334 C.ar       1           0.3525
     25 C21         5.4307    -6.4183    95.4905 C.ar       1          -0.1334
     26 C22         4.6635    -5.3902    94.9267 C.ar       1          -0.0624
     27 C23         3.7242    -4.7565    95.6840 C.ar       1          -0.1074
     28 C24         3.5169    -5.1176    97.0129 C.ar       1          -0.0287
     29 C25         4.2452    -6.1115    97.5917 C.ar       1          -0.1450
     30 C26         5.2225    -6.7886    96.8408 C.ar       1           0.1784
     31 N4          5.9498    -7.7687    97.3864 N.ar       1          -0.5136
     32 H2          5.7966    -8.0121    98.3129 H          1           0.4385
     33 C27         6.8714    -8.4140    96.6948 C.ar       1           0.3242
     34 C28         7.1306    -8.1077    95.3544 C.ar       1          -0.2653
     35 C29         7.6468    -9.4932    97.3533 C.ar       1          -0.1234
     36 C30         7.6077   -10.7914    96.8474 C.ar       1          -0.0623
     37 C31         8.3314   -11.7916    97.4643 C.ar       1          -0.1153
     38 C32         9.0941   -11.5078    98.5829 C.ar       1          -0.0656
     39 C33         9.1368   -10.2213    99.0893 C.ar       1          -0.1093
     40 C34         8.4220    -9.2118    98.4770 C.ar       1          -0.0862
     41 H3          7.0604    -6.5065    90.7650 H          1           0.0849
     42 H4          5.7506    -7.6787    91.0457 H          1           0.0849
     43 H5          8.6031    -8.3648    90.2031 H          1           0.0849
     44 H6          7.2933    -9.5370    90.4837 H          1           0.0849
     45 H7          7.5307    -9.0291    88.0682 H          1           0.0886
     46 H8          5.9566    -8.4735    88.6861 H          1           0.0885
     47 H9          8.1232    -6.4954    88.6534 H          1           0.4192
     48 H10         8.9757    -5.1920    87.4947 H          1           0.1433
     49 H11         9.7354    -3.2864    86.1756 H          1           0.1520
     50 H12         8.2362    -2.2015    84.5586 H          1           0.1565
     51 H13         5.9595    -3.0015    84.2346 H          1           0.1567
     52 H14         4.8382    -7.5820    87.7030 H          1           0.1742
     53 H15         2.4290    -6.1918    88.0259 H          1           0.1365
     54 H16         0.1230    -6.9597    87.6451 H          1           0.1432
     55 H17        -0.5674    -7.7340    85.4144 H          1           0.1431
     56 H18         1.0420    -7.7435    83.5536 H          1           0.1443
     57 H19         3.3488    -6.9681    83.9132 H          1           0.1263
     58 H20         7.0874    -8.7418    92.8433 H          1           0.0886
     59 H21         8.3971    -7.5697    92.5627 H          1           0.0885
     60 H22         6.3756    -5.9043    93.0662 H          1           0.4192
     61 H23         4.8159    -5.1012    93.8973 H          1           0.1433
     62 H24         3.1337    -3.9643    95.2482 H          1           0.1520
     63 H25         2.7671    -4.6007    97.5935 H          1           0.1565
     64 H26         4.0727    -6.3792    98.6236 H          1           0.1567
     65 H27         7.8869    -8.6526    94.8091 H          1           0.1742
     66 H28         7.0120   -11.0141    95.9746 H          1           0.1365
     67 H29         8.3017   -12.7978    97.0732 H          1           0.1432
     68 H30         9.6582   -12.2938    99.0628 H          1           0.1431
     69 H31         9.7337   -10.0055    99.9631 H          1           0.1443
     70 H32         8.4597    -8.2068    98.8706 H          1           0.1263
@<TRIPOS>BOND
     1    1    2 1
     2    1   22 1
     3    1   41 1
     4    1   42 1
     5    2    3 1
     6    2   43 1
     7    2   44 1
     8    3    4 1
     9    3   45 1
    10    3   46 1
    11    4    5 1
    12    4   47 1
    13    5   15 ar
    14    5    6 ar
    15    6   11 ar
    16    6    7 ar
    17    7    8 ar
    18    7   48 1
    19    8    9 ar
    20    8   49 1
    21    9   10 ar
    22    9   50 1
    23   10   11 ar
    24   10   51 1
    25   11   12 ar
    26   12   13 1
    27   12   14 ar
    28   14   15 ar
    29   14   16 1
    30   15   52 1
    31   16   21 ar
    32   16   17 ar
    33   17   18 ar
    34   17   53 1
    35   18   19 ar
    36   18   54 1
    37   19   20 ar
    38   19   55 1
    39   20   21 ar
    40   20   56 1
    41   21   57 1
    42   22   23 1
    43   22   58 1
    44   22   59 1
    45   23   24 1
    46   23   60 1
    47   24   34 ar
    48   24   25 ar
    49   25   30 ar
    50   25   26 ar
    51   26   27 ar
    52   26   61 1
    53   27   28 ar
    54   27   62 1
    55   28   29 ar
    56   28   63 1
    57   29   30 ar
    58   29   64 1
    59   30   31 ar
    60   31   32 1
    61   31   33 ar
    62   33   34 ar
    63   33   35 1
    64   34   65 1
    65   35   40 ar
    66   35   36 ar
    67   36   37 ar
    68   36   66 1
    69   37   38 ar
    70   37   67 1
    71   38   39 ar
    72   38   68 1
    73   39   40 ar
    74   39   69 1
    75   40   70 1
##########                 Name:              T529888
##########          Protonation:                   96
##########               SMILES:   @H]2C[C@@H]2C(=O)NCCCCC[NH+]3CC[C@@H](C3)NC(=O)Nc4ccc(c(c4)C(F)(F)F)Cl)Cl)Cl
##########            Long Name:   ]pyrrolidin-1-ium-1-yl]pentyl]-2-(3,4-dichlorophenyl)cyclopropanecarboxamide
##########          FlexRecCode: 1
##########               Number:                   80
##########   Ligand Source File: /raidb/db2/rgc/tcams/tcams-0000761.db2.gz
##########           GlobalRank: 62
##########                 Rank:                    1
##########               Setnum:                  364
##########             Matchnum:                  715
##########                Cloud:                    1
##########        Electrostatic:           -32.044708
##########        Van der Waals:           -40.239441
##########  Ligand Polar Desolv:             7.769555
########## Ligand Apolar Desolv:            -5.121614
##########      Internal Energy:             0.000000
##########      Receptor Energy: 0.0
########## Receptor Desolvation:             0.000000
########## Receptor Hydrophobic:             0.000000
##########         Total Energy: -69.64
##########        Ligand Charge:             1.000000
##########            Arbitrary:    +999.9990
##########     heavy atom count:   39
##########           pose count:    1
##########        Ligand Energy:             0.000000
# num electro vdwattr vdwrepu polsolv apolsol rdesolv rhydroe totalscore fullpol fullapo
#   1    1.49   -0.99    0.09   -0.55   -0.25    0.00    0.00      -0.21   -0.95   -0.44
#   2   -3.21   -1.02    0.12    1.01   -0.03    0.00    0.00      -3.13    2.10   -0.06
#   3    1.42   -0.56    0.03   -0.18   -0.18    0.00    0.00       0.53   -0.46   -0.45
#   4   -0.11   -2.46    1.78   -0.24   -0.22    0.00    0.00      -1.26   -0.48   -0.45
#   5    1.17   -1.52    0.27   -0.51   -0.16    0.00    0.00      -0.75   -1.18   -0.37
#   6    0.67   -1.38    0.16   -0.31   -0.16    0.00    0.00      -1.01   -0.85   -0.44
#   7   -2.05   -1.45    0.15    1.03   -0.31    0.00    0.00      -2.62    2.29   -0.68
#   8   10.82   -1.34    0.14   -4.77    0.72    0.00    0.00       5.58  -11.19    1.70
#   9   -9.88   -1.37    0.14    4.73   -0.85    0.00    0.00      -7.22   11.81   -2.11
#  10    3.25   -2.48    0.89   -3.29    0.14    0.00    0.00      -1.49   -7.51    0.32
#  11   15.06   -1.40    0.18   -6.49    0.83    0.00    0.00       8.19  -16.63    2.13
#  12   -3.08   -0.84    0.07    1.41   -0.14    0.00    0.00      -2.58    3.32   -0.32
#  13    4.19   -1.14    0.19   -1.91   -0.13    0.00    0.00       1.20   -4.44   -0.29
#  14    0.23   -0.77    0.07    0.15   -0.15    0.00    0.00      -0.47    0.40   -0.40
#  15    6.83   -0.61    0.03   -3.54    0.13    0.00    0.00       2.84  -12.50    0.45
#  16   -6.40   -0.01    0.00    1.47    0.04    0.00    0.00      -4.89   18.28    0.56
#  17    0.20   -0.88    0.13    0.08   -0.13    0.00    0.00      -0.60    0.19   -0.32
#  18    2.34   -1.05    0.40   -1.38   -0.07    0.00    0.00       0.23   -4.21   -0.22
#  19    0.31   -0.40    0.03   -0.66   -0.05    0.00    0.00      -0.77   -2.93   -0.22
#  20    0.38   -0.54    0.09   -0.54   -0.05    0.00    0.00      -0.65   -2.36   -0.22
#  21   -0.19   -0.22    0.01    0.20   -0.06    0.00    0.00      -0.26    1.41   -0.42
#  22    1.15   -0.41    0.02   -1.31    0.34    0.00    0.00      -0.21   -8.89    2.32
#  23   -2.22   -0.32    0.01    0.52   -0.08    0.00    0.00      -2.08    4.30   -0.64
#  24    1.55   -0.20    0.00   -0.16    0.04    0.00    0.00       1.23   -1.72    0.38
#  25    1.72   -0.41    0.03   -0.36   -0.08    0.00    0.00       0.91   -1.64   -0.37
#  26    3.14   -0.51    0.06   -0.29   -0.09    0.00    0.00       2.30   -1.27   -0.41
#  27    0.97   -0.26    0.01   -0.15   -0.06    0.00    0.00       0.50   -0.94   -0.37
#  28    0.55   -0.68    0.06   -0.04   -0.08    0.00    0.00      -0.19   -0.19   -0.40
#  29    0.37   -0.82    0.12   -0.15   -0.09    0.00    0.00      -0.58   -0.70   -0.42
#  30    0.13   -1.21    0.23   -0.08   -0.09    0.00    0.00      -1.02   -0.26   -0.30
#  31    0.17   -3.17    0.97   -0.11   -0.38    0.00    0.00      -2.51   -0.27   -0.95
#  32    0.60   -1.32    0.23   -0.10   -0.11    0.00    0.00      -0.69   -0.28   -0.30
#  33    1.28   -4.66    3.08   -0.09   -0.42    0.00    0.00      -0.81   -0.20   -0.95
#  34    2.49   -1.28    0.22   -0.18   -0.15    0.00    0.00       1.11   -0.57   -0.46
#  35    2.28   -1.11    0.21   -0.17   -0.12    0.00    0.00       1.09   -0.67   -0.46
#  36    0.25   -0.70    0.11    0.12   -0.15    0.00    0.00      -0.38    0.37   -0.48
#  37    1.28   -2.01    0.30   -0.44   -0.22    0.00    0.00      -1.09   -0.78   -0.40
#  38    1.50   -2.42    0.79   -0.41   -0.25    0.00    0.00      -0.80   -0.74   -0.46
#  39    0.03   -1.98    0.74   -0.16   -0.16    0.00    0.00      -1.53   -0.31   -0.30
#  40    0.19   -5.53    3.15   -0.22   -0.55    0.00    0.00      -2.95   -0.36   -0.91
#  41   -0.76   -0.24    0.02    0.61   -0.06    0.00    0.00      -0.42    2.65   -0.25
#  42   -8.35   -0.02    0.00    2.97    0.19    0.00    0.00      -5.22    9.41    0.59
#  43  -10.61   -0.03    0.00    3.28    0.15    0.00    0.00      -7.20   12.41    0.57
#  44   -2.58   -0.40    0.09    0.67   -0.10    0.00    0.00      -2.32    1.70   -0.26
#  45   -3.33   -0.91    0.66    0.46   -0.13    0.00    0.00      -3.24    1.02   -0.28
#  46   -3.08   -0.27    0.02    0.88   -0.08    0.00    0.00      -2.53    3.15   -0.28
#  47   -4.40   -0.41    0.15    1.53   -0.09    0.00    0.00      -3.23    4.36   -0.26
#  48   -3.30   -0.21    0.01    1.41   -0.07    0.00    0.00      -2.15    6.03   -0.28
#  49   -1.29   -0.31    0.05    1.84   -0.09    0.00    0.00       0.19    5.55   -0.28
#  50   -4.21   -0.63    0.75    1.77   -0.11    0.00    0.00      -2.44    4.32   -0.27
#  51   -1.03   -0.88    1.37    1.17   -0.09    0.00    0.00       0.53    3.18   -0.25
#  52   -2.23   -0.32    0.14    0.92   -0.07    0.00    0.00      -1.57    3.62   -0.28
#  53   -0.59   -0.07    0.00    0.12   -0.02    0.00    0.00      -0.57    1.57   -0.28
#  54   -0.15   -0.10    0.00    0.15   -0.03    0.00    0.00      -0.13    1.35   -0.28
#  55   -0.21   -0.36    0.18    0.39   -0.06    0.00    0.00      -0.07    1.84   -0.28
#  56   -0.63   -0.18    0.03    0.36   -0.05    0.00    0.00      -0.47    1.98   -0.28
#  57   -0.10   -0.04    0.00    0.02   -0.01    0.00    0.00      -0.13    0.39   -0.28
#  58   -0.10   -0.07    0.00    0.02   -0.02    0.00    0.00      -0.17    0.30   -0.28
#  59   -0.60   -0.01    0.00    0.97    0.08    0.00    0.00       0.43    7.13    0.57
#  60   -0.61   -0.28    0.07    0.55   -0.07    0.00    0.00      -0.35    2.24   -0.28
#  61   -4.43   -0.50    0.31    0.48   -0.06    0.00    0.00      -4.20    1.86   -0.22
#  62   -1.95   -0.08    0.00    0.08   -0.02    0.00    0.00      -1.97    1.00   -0.28
#  63   -1.03   -0.03    0.00    0.02   -0.01    0.00    0.00      -1.05    0.56   -0.26
#  64   -0.39   -0.12    0.01    0.22   -0.02    0.00    0.00      -0.30    1.92   -0.21
#  65   -4.40   -0.29    0.06    0.30   -0.07    0.00    0.00      -4.41    1.12   -0.28
#  66   -4.27   -0.26    0.06    0.29   -0.06    0.00    0.00      -4.23    1.40   -0.28
#  67   -1.19   -0.17    0.03    0.95   -0.04    0.00    0.00      -0.41    6.90   -0.26
#  68   -0.60   -0.47    0.33    1.71   -0.08    0.00    0.00       0.90    5.54   -0.26
#  69   -3.20   -0.50    0.07    0.91   -0.12    0.00    0.00      -2.85    1.66   -0.22
#  70   -3.28   -0.76    0.42    0.77   -0.15    0.00    0.00      -3.00    1.44   -0.28

@<TRIPOS>MOLECULE
          T529888        96
   70    73     0     0     0



@<TRIPOS>ATOM
      1 F1          8.5052   -13.0506    97.1559 F          1          -0.1744
      2 C1          7.7519   -12.0738    96.4958 C.3        1           0.5101
      3 F2          8.2090   -11.9426    95.1801 F          1          -0.1657
      4 F3          6.4048   -12.4513    96.4861 F          1          -0.1654
      5 C2          7.8993   -10.7564    97.2125 C.ar       1          -0.1559
      6 C3          7.2377    -9.6380    96.7438 C.ar       1          -0.0842
      7 C4          7.3735    -8.4247    97.4048 C.ar       1           0.1555
      8 N1          6.7036    -7.2899    96.9322 N.am       1          -0.6763
      9 C5          5.3584    -7.2867    96.8507 C.2        1           0.7124
     10 O1          4.7265    -8.2693    97.1876 O.2        1          -0.5577
     11 N2          4.7134    -6.1942    96.3957 N.am       1          -0.7365
     12 C6          3.2510    -6.1907    96.3070 C.3        1           0.1529
     13 C7          2.7426    -4.8651    95.6818 C.3        1          -0.1599
     14 C8          1.3895    -5.3063    95.0702 C.3        1          -0.0093
     15 N3          1.6337    -6.6718    94.5588 N.4        1          -0.3876
     16 H1          1.8605    -6.6310    93.5764 H          1           0.4287
     17 C9          0.4337    -7.4958    94.7563 C.3        1          -0.0106
     18 C10        -0.5801    -7.1936    93.6510 C.3        1          -0.1472
     19 C11         0.0397    -7.5134    92.2891 C.3        1          -0.1155
     20 C12        -0.9740    -7.2112    91.1838 C.3        1          -0.1324
     21 C13        -0.3543    -7.5311    89.8221 C.3        1           0.1173
     22 N4          0.8425    -6.7094    89.6250 N.am       1          -0.7314
     23 C14         2.0458    -7.1641    90.0270 C.2        1           0.5459
     24 O2          2.1380    -8.2535    90.5519 O.2        1          -0.5314
     25 C15         3.2769    -6.3190    89.8241 C.3        1          -0.1824
     26 C16         4.3736    -6.4015    90.8877 C.3        1          -0.1411
     27 C17         4.5885    -7.0438    89.5159 C.3        1          -0.0793
     28 C18         5.5523    -6.3685    88.5747 C.ar       1          -0.0426
     29 C19         5.1633    -6.0748    87.2810 C.ar       1          -0.1009
     30 C20         6.0474    -5.4549    86.4168 C.ar       1          -0.0281
     31 Cl1         5.5591    -5.0853    84.7924 Cl         1          -0.0430
     32 C21         7.3224    -5.1287    86.8483 C.ar       1          -0.0330
     33 Cl2         8.4332    -4.3501    85.7649 Cl         1          -0.0420
     34 C22         7.7098    -5.4233    88.1428 C.ar       1          -0.0935
     35 C23         6.8229    -6.0377    89.0070 C.ar       1          -0.0907
     36 C24         2.7626    -7.2576    95.3047 C.3        1          -0.0212
     37 C25         8.1747    -8.3388    98.5359 C.ar       1          -0.0739
     38 C26         8.8341    -9.4597    99.0002 C.ar       1          -0.0896
     39 C27         8.6928   -10.6692    98.3426 C.ar       1          -0.0030
     40 Cl3         9.5178   -12.0780    98.9328 Cl         1          -0.0311
     41 H2          6.6154    -9.7074    95.8638 H          1           0.1523
     42 H3          7.2076    -6.5059    96.6634 H          1           0.4146
     43 H4          5.2174    -5.4102    96.1268 H          1           0.4062
     44 H5          2.8064    -6.3523    97.2891 H          1           0.1314
     45 H6          2.5951    -4.1036    96.4475 H          1           0.1246
     46 H7          3.4241    -4.5116    94.9080 H          1           0.1030
     47 H8          0.6137    -5.3210    95.8358 H          1           0.1379
     48 H9          1.1066    -4.6407    94.2548 H          1           0.1396
     49 H10         0.7070    -8.5504    94.7203 H          1           0.1328
     50 H11        -0.0079    -7.2678    95.7265 H          1           0.1331
     51 H12        -1.4705    -7.8050    93.7975 H          1           0.0885
     52 H13        -0.8534    -6.1391    93.6871 H          1           0.0881
     53 H14         0.9301    -6.9020    92.1427 H          1           0.0790
     54 H15         0.3131    -8.5679    92.2531 H          1           0.0791
     55 H16        -1.8644    -7.8226    91.3304 H          1           0.0747
     56 H17        -1.2474    -6.1566    91.2198 H          1           0.0748
     57 H18        -0.0810    -8.5857    89.7859 H          1           0.0699
     58 H19        -1.0765    -7.3158    89.0346 H          1           0.0700
     59 H20         0.7688    -5.8382    89.2052 H          1           0.4030
     60 H21         3.1110    -5.3538    89.3457 H          1           0.1284
     61 H22         4.9292    -5.4903    91.1095 H          1           0.1127
     62 H23         4.2046    -7.0671    91.7343 H          1           0.1094
     63 H24         4.5611    -8.1321    89.4599 H          1           0.1347
     64 H25         4.1690    -6.3296    86.9450 H          1           0.1434
     65 H26         8.7041    -5.1694    88.4798 H          1           0.1468
     66 H27         7.1243    -6.2633    90.0193 H          1           0.1418
     67 H28         3.5675    -7.5160    94.6167 H          1           0.1369
     68 H29         2.4310    -8.1465    95.8416 H          1           0.1449
     69 H30         8.2824    -7.3960    99.0516 H          1           0.1585
     70 H31         9.4576    -9.3932    99.8796 H          1           0.1539
@<TRIPOS>BOND
     1    1    2 1
     2    2    3 1
     3    2    4 1
     4    2    5 1
     5    5   39 ar
     6    5    6 ar
     7    6    7 ar
     8    6   41 1
     9    7    8 1
    10    7   37 ar
    11    8    9 am
    12    8   42 1
    13    9   10 2
    14    9   11 am
    15   11   12 1
    16   11   43 1
    17   12   36 1
    18   12   13 1
    19   12   44 1
    20   13   14 1
    21   13   45 1
    22   13   46 1
    23   14   15 1
    24   14   47 1
    25   14   48 1
    26   15   16 1
    27   15   17 1
    28   15   36 1
    29   17   18 1
    30   17   49 1
    31   17   50 1
    32   18   19 1
    33   18   51 1
    34   18   52 1
    35   19   20 1
    36   19   53 1
    37   19   54 1
    38   20   21 1
    39   20   55 1
    40   20   56 1
    41   21   22 1
    42   21   57 1
    43   21   58 1
    44   22   23 am
    45   22   59 1
    46   23   24 2
    47   23   25 1
    48   25   27 1
    49   25   26 1
    50   25   60 1
    51   26   27 1
    52   26   61 1
    53   26   62 1
    54   27   28 1
    55   27   63 1
    56   28   35 ar
    57   28   29 ar
    58   29   30 ar
    59   29   64 1
    60   30   31 1
    61   30   32 ar
    62   32   33 1
    63   32   34 ar
    64   34   35 ar
    65   34   65 1
    66   35   66 1
    67   36   67 1
    68   36   68 1
    69   37   38 ar
    70   37   69 1
    71   38   39 ar
    72   38   70 1
    73   39   40 1
##########                 Name:              T534992
##########          Protonation:                   13
##########               SMILES:   CN([C@H]1CC[NH+](CC1)Cc2cc(ccc2)F)c3[nH+]ccc(c3)NC(=O)c4ccc(cc4)F
##########            Long Name:   henyl)methyl]piperidin-1-ium-4-yl]-methyl-amino]pyridin-1-ium-4-yl]benzamide
##########          FlexRecCode: 1
##########               Number:                  160
##########   Ligand Source File: /raidb/db2/rgc/tcams/tcams-0001358.db2.gz
##########           GlobalRank: 63
##########                 Rank:                    1
##########               Setnum:                   85
##########             Matchnum:                 2622
##########                Cloud:                    1
##########        Electrostatic:           -51.740974
##########        Van der Waals:           -35.042736
##########  Ligand Polar Desolv:            23.354736
########## Ligand Apolar Desolv:            -6.192217
##########      Internal Energy:             0.000000
##########      Receptor Energy: 0.0
########## Receptor Desolvation:             0.000000
########## Receptor Hydrophobic:             0.000000
##########         Total Energy: -69.62
##########        Ligand Charge:             2.000000
##########            Arbitrary:    +999.9990
##########     heavy atom count:   32
##########           pose count:    1
##########        Ligand Energy:             0.000000
# num electro vdwattr vdwrepu polsolv apolsol rdesolv rhydroe totalscore fullpol fullapo
#   1   -1.29   -1.13    0.15    0.36   -0.20    0.00    0.00      -2.11    0.76   -0.41
#   2   14.07   -1.00    0.05   -9.29    0.50    0.00    0.00       4.33  -25.17    1.35
#   3   -2.54   -0.50    0.02    1.40   -0.07    0.00    0.00      -1.69    4.93   -0.26
#   4    3.57   -0.99    0.15   -2.58   -0.08    0.00    0.00       0.07   -6.87   -0.20
#   5    0.61   -1.22    0.51   -0.49   -0.12    0.00    0.00      -0.71   -1.43   -0.34
#   6    5.56   -0.65    0.05   -4.71    0.07    0.00    0.00       0.32  -17.05    0.27
#   7   -4.42   -0.01    0.00    3.26    0.08    0.00    0.00      -1.09   21.89    0.54
#   8   -1.15   -1.04    0.42    0.98   -0.12    0.00    0.00      -0.91    2.85   -0.36
#   9    3.57   -1.93    0.83   -1.15   -0.15    0.00    0.00       1.17   -2.58   -0.33
#  10    2.39   -1.85    0.52   -1.24   -0.21    0.00    0.00      -0.38   -2.70   -0.45
#  11    1.82   -2.47    0.94   -1.96   -0.28    0.00    0.00      -1.95   -3.27   -0.47
#  12    2.76   -2.56    0.54   -2.91   -0.32    0.00    0.00      -2.48   -4.30   -0.47
#  13   -2.76   -2.93    0.62    0.00   -0.22    0.00    0.00      -5.28    0.00   -0.34
#  14    3.02   -2.76    1.04   -2.40   -0.33    0.00    0.00      -1.44   -3.45   -0.48
#  15    3.57   -2.86    1.02   -1.85   -0.20    0.00    0.00      -0.31   -3.33   -0.36
#  16    0.13   -0.32    0.01   -0.19   -0.07    0.00    0.00      -0.43   -0.97   -0.34
#  17    2.50   -0.39    0.01   -1.75   -0.05    0.00    0.00       0.32   -7.75   -0.22
#  18  -11.71   -1.22    0.12    7.31   -0.71    0.00    0.00      -6.21   19.75   -1.91
#  19    4.37   -1.09    0.09   -2.98   -0.16    0.00    0.00       0.23   -8.06   -0.43
#  20   -6.54   -1.40    0.22    3.48   -0.28    0.00    0.00      -4.52    8.21   -0.67
#  21   10.46   -1.44    0.17   -7.60    0.65    0.00    0.00       2.24  -19.17    1.64
#  22   -5.45   -1.30    0.13    5.02   -0.23    0.00    0.00      -1.82   13.64   -0.63
#  23    1.89   -1.61    0.46   -3.76    0.11    0.00    0.00      -2.90  -10.88    0.33
#  24    1.48   -1.56    0.31   -1.30   -0.16    0.00    0.00      -1.24   -3.26   -0.41
#  25    0.64   -1.95    0.67   -0.13   -0.22    0.00    0.00      -1.00   -0.27   -0.44
#  26    1.68   -2.39    1.01   -1.75   -0.26    0.00    0.00      -1.71   -3.15   -0.47
#  27   -1.06   -2.23    0.42    0.35   -0.20    0.00    0.00      -2.72    0.59   -0.34
#  28   -0.25   -3.59    4.83   -1.20   -0.31    0.00    0.00      -0.52   -1.85   -0.48
#  29    1.19   -1.70    0.19   -1.53   -0.26    0.00    0.00      -2.12   -2.73   -0.47
#  30    0.07   -1.55    0.22   -0.40   -0.20    0.00    0.00      -1.86   -0.92   -0.46
#  31    4.95   -2.42    0.71   -3.94   -0.21    0.00    0.00      -0.90   -7.87   -0.41
#  32   -6.65   -3.11    1.40    4.29   -0.53    0.00    0.00      -4.62    7.78   -0.97
#  33   18.81   -2.09    0.41   -9.79    0.39    0.00    0.00       7.73  -20.04    0.80
#  34  -17.53   -0.03    0.00    9.30    0.18    0.00    0.00      -8.09   20.54    0.39
#  35   -1.76   -0.53    0.18    2.81   -0.10    0.00    0.00       0.60    6.34   -0.23
#  36   -2.81   -0.46    0.08    1.62   -0.11    0.00    0.00      -1.68    3.51   -0.24
#  37   -2.35   -0.29    0.03    2.26   -0.07    0.00    0.00      -0.42    6.25   -0.18
#  38   -3.11   -0.15    0.01    0.90   -0.04    0.00    0.00      -2.40    5.49   -0.26
#  39   -3.43   -0.31    0.05    1.56   -0.07    0.00    0.00      -2.19    5.49   -0.23
#  40   -3.37   -0.59    0.21    2.32   -0.11    0.00    0.00      -1.54    6.12   -0.28
#  41   -2.45   -0.47    0.17    2.68   -0.04    0.00    0.00      -0.10    8.39   -0.13
#  42   -1.78   -0.89    1.46    2.52   -0.08    0.00    0.00       1.23    8.77   -0.28
#  43   -3.62   -0.83    2.00    2.55   -0.08    0.00    0.00       0.02    8.66   -0.28
#  44   -4.36   -0.29    0.06    2.47   -0.07    0.00    0.00      -2.19    9.23   -0.27
#  45   -2.35   -0.36    0.12    2.26   -0.08    0.00    0.00      -0.42    7.65   -0.28
#  46   -3.59   -1.57    4.57    1.29   -0.13    0.00    0.00       0.56    2.75   -0.28
#  47   -3.63   -0.73    0.25    0.51   -0.16    0.00    0.00      -3.76    0.90   -0.28
#  48   -4.67   -1.29    2.04    3.37   -0.14    0.00    0.00      -0.69    6.90   -0.28
#  49   -0.43   -0.08    0.00    0.57   -0.02    0.00    0.00       0.03    7.48   -0.26
#  50   -1.38   -0.08    0.00    0.33   -0.01    0.00    0.00      -1.14    4.43   -0.19
#  51   -0.92   -0.14    0.02    0.75   -0.03    0.00    0.00      -0.33    6.31   -0.28
#  52   -1.89   -0.16    0.01    0.74   -0.03    0.00    0.00      -1.34    4.37   -0.20
#  53   -1.94   -0.24    0.02    2.31   -0.05    0.00    0.00       0.10    9.44   -0.22
#  54   -7.50   -0.03    0.00    4.85    0.15    0.00    0.00      -2.53   15.15    0.46
#  55   -2.33   -0.36    0.04    3.24   -0.10    0.00    0.00       0.49    7.45   -0.22
#  56   -1.84   -1.01    2.82    1.87   -0.15    0.00    0.00       1.69    3.46   -0.28
#  57   -1.61   -0.40    0.06    0.73   -0.14    0.00    0.00      -1.36    1.49   -0.28
#  58   -0.35   -0.34    0.05    0.63   -0.08    0.00    0.00      -0.08    2.19   -0.26
#  59   -5.80   -0.84    0.54    1.54   -0.12    0.00    0.00      -4.67    2.80   -0.22
#  60  -10.23   -1.09    0.77    5.79   -0.17    0.00    0.00      -4.93    9.64   -0.28

@<TRIPOS>MOLECULE
          T534992        13
   60    63     0     0     0



@<TRIPOS>ATOM
      1 C1          2.3651    -5.8259    96.6508 C.3        1           0.0548
      2 N1          3.1976    -5.6754    95.4549 N.pl3      1          -0.6047
      3 C2          2.5715    -5.5732    94.1345 C.3        1           0.1125
      4 C3          1.6367    -4.3611    94.1021 C.3        1          -0.1487
      5 C4          0.9437    -4.2996    92.7394 C.3        1          -0.0370
      6 N2          0.1646    -5.5250    92.5233 N.4        1          -0.3804
      7 H1         -0.3234    -5.4601    91.6426 H          1           0.4272
      8 C5         -0.8113    -5.6796    93.6105 C.3        1           0.0459
      9 C6         -1.7369    -4.4905    93.6272 C.ar       1          -0.1390
     10 C7         -2.2785    -4.0197    92.4454 C.ar       1          -0.1020
     11 C8         -3.1273    -2.9288    92.4590 C.ar       1          -0.0767
     12 C9         -3.4360    -2.3077    93.6546 C.ar       1          -0.1158
     13 C10        -2.8947    -2.7785    94.8386 C.ar       1           0.1130
     14 F1         -3.1957    -2.1721    96.0078 F          1          -0.1230
     15 C11        -2.0485    -3.8747    94.8242 C.ar       1          -0.1412
     16 C12         1.0551    -6.6920    92.5013 C.3        1          -0.0129
     17 C13         1.7520    -6.8361    93.8558 C.3        1          -0.1736
     18 C14         4.5823    -5.6297    95.5732 C.ar       1           0.4542
     19 C15         5.2611    -6.7087    96.1239 C.ar       1          -0.2380
     20 C16         6.6461    -6.6485    96.2353 C.ar       1           0.3202
     21 N3          7.3659    -7.7108    96.7820 N.am       1          -0.6653
     22 C17         6.9057    -8.9714    96.6578 C.2        1           0.5775
     23 O1          5.8632    -9.1827    96.0691 O.2        1          -0.4887
     24 C18         7.6679   -10.0962    97.2367 C.ar       1          -0.1762
     25 C19         8.4980    -9.8860    98.3401 C.ar       1          -0.0507
     26 C20         9.2067   -10.9394    98.8767 C.ar       1          -0.1598
     27 C21         9.0969   -12.2058    98.3229 C.ar       1           0.1551
     28 F2          9.7941   -13.2348    98.8525 F          1          -0.1189
     29 C22         8.2739   -12.4203    97.2278 C.ar       1          -0.1582
     30 C23         7.5566   -11.3751    96.6865 C.ar       1          -0.0136
     31 C24         7.2982    -5.4986    95.7856 C.ar       1          -0.1691
     32 C25         6.5552    -4.4691    95.2507 C.ar       1           0.1676
     33 N4          5.2411    -4.5593    95.1543 N.ar       1          -0.5181
     34 H2          4.7445    -3.8200    94.7698 H          1           0.4383
     35 H3          3.0030    -5.8851    97.5326 H          1           0.0792
     36 H4          1.6996    -4.9671    96.7407 H          1           0.1002
     37 H5          1.7728    -6.7374    96.5689 H          1           0.1091
     38 H6          3.3425    -5.4621    93.3719 H          1           0.1183
     39 H7          0.8877    -4.4573    94.8881 H          1           0.1328
     40 H8          2.2150    -3.4505    94.2584 H          1           0.1229
     41 H9          0.2779    -3.4369    92.7101 H          1           0.1436
     42 H10         1.6943    -4.2042    91.9549 H          1           0.1482
     43 H11        -1.3908    -6.5890    93.4519 H          1           0.1379
     44 H12        -0.2862    -5.7448    94.5634 H          1           0.1485
     45 H13        -2.0378    -4.5044    91.5107 H          1           0.1418
     46 H14        -3.5491    -2.5616    91.5352 H          1           0.1516
     47 H15        -4.0989    -1.4552    93.6650 H          1           0.1532
     48 H16        -1.6291    -4.2454    95.7478 H          1           0.1401
     49 H17         0.4713    -7.5896    92.2967 H          1           0.1270
     50 H18         1.8042    -6.5616    91.7202 H          1           0.1425
     51 H19         2.4132    -7.7024    93.8353 H          1           0.1252
     52 H20         1.0046    -6.9657    94.6384 H          1           0.1028
     53 H21         4.7217    -7.5815    96.4611 H          1           0.1818
     54 H22         8.1978    -7.5423    97.2515 H          1           0.4313
     55 H23         8.5848    -8.8998    98.7718 H          1           0.1346
     56 H24         9.8489   -10.7780    99.7299 H          1           0.1522
     57 H25         8.1917   -13.4087    96.8006 H          1           0.1550
     58 H26         6.9129   -11.5440    95.8358 H          1           0.1527
     59 H27         8.3729    -5.4170    95.8567 H          1           0.1967
     60 H28         7.0548    -3.5776    94.9015 H          1           0.2162
@<TRIPOS>BOND
     1    1    2 1
     2    1   35 1
     3    1   36 1
     4    1   37 1
     5    2    3 1
     6    2   18 1
     7    3   17 1
     8    3    4 1
     9    3   38 1
    10    4    5 1
    11    4   39 1
    12    4   40 1
    13    5    6 1
    14    5   41 1
    15    5   42 1
    16    6    7 1
    17    6    8 1
    18    6   16 1
    19    8    9 1
    20    8   43 1
    21    8   44 1
    22    9   15 ar
    23    9   10 ar
    24   10   11 ar
    25   10   45 1
    26   11   12 ar
    27   11   46 1
    28   12   13 ar
    29   12   47 1
    30   13   14 1
    31   13   15 ar
    32   15   48 1
    33   16   17 1
    34   16   49 1
    35   16   50 1
    36   17   51 1
    37   17   52 1
    38   18   33 ar
    39   18   19 ar
    40   19   20 ar
    41   19   53 1
    42   20   21 1
    43   20   31 ar
    44   21   22 am
    45   21   54 1
    46   22   23 2
    47   22   24 1
    48   24   30 ar
    49   24   25 ar
    50   25   26 ar
    51   25   55 1
    52   26   27 ar
    53   26   56 1
    54   27   28 1
    55   27   29 ar
    56   29   30 ar
    57   29   57 1
    58   30   58 1
    59   31   32 ar
    60   31   59 1
    61   32   33 ar
    62   32   60 1
    63   33   34 1
##########                 Name:              T526241
##########          Protonation:                   99
##########               SMILES:   Cc2ccc(cc2)C[C@H](C)[NH2+]C[C@@H](c3cccc(c3)Cl)O)[NH2+]C[C@H](c4cccc(c4)Cl)O
##########            Long Name:   -2-hydroxy-ethyl]ammonio]propyl]phenyl]ethyl]phenyl]-1-methyl-ethyl]ammonium
##########          FlexRecCode: 1
##########               Number:                  342
##########   Ligand Source File: /raidb/db2/rgc/tcams/tcams-0000421.db2.gz
##########           GlobalRank: 64
##########                 Rank:                    1
##########               Setnum:                  254
##########             Matchnum:                 1745
##########                Cloud:                    1
##########        Electrostatic:           -36.586300
##########        Van der Waals:           -29.918865
##########  Ligand Polar Desolv:             0.691525
########## Ligand Apolar Desolv:            -3.759927
##########      Internal Energy:             0.000000
##########      Receptor Energy: 0.0
########## Receptor Desolvation:             0.000000
########## Receptor Hydrophobic:             0.000000
##########         Total Energy: -69.57
##########        Ligand Charge:             2.000000
##########            Arbitrary:    +999.9990
##########     heavy atom count:   42
##########           pose count:    1
##########        Ligand Energy:             0.000000
# num electro vdwattr vdwrepu polsolv apolsol rdesolv rhydroe totalscore fullpol fullapo
#   1    5.11   -0.94    0.10   -2.74   -0.08    0.00    0.00       1.45   -6.64   -0.19
#   2   -0.80   -0.57    0.03    0.79   -0.07    0.00    0.00      -0.62    2.71   -0.24
#   3    2.89   -1.56    0.95   -1.20   -0.08    0.00    0.00       1.01   -3.27   -0.21
#   4    2.30   -1.91    1.18   -0.82   -0.10    0.00    0.00       0.65   -2.79   -0.33
#   5    1.09   -1.29    0.73   -0.85   -0.09    0.00    0.00      -0.40   -3.71   -0.38
#   6    0.18   -0.69    0.15   -0.65   -0.08    0.00    0.00      -1.09   -3.44   -0.45
#   7    0.14   -0.56    0.06   -0.45   -0.07    0.00    0.00      -0.87   -2.41   -0.36
#   8    0.12   -0.22    0.01   -0.19   -0.03    0.00    0.00      -0.32   -1.46   -0.23
#   9    0.10   -0.60    0.08   -0.39   -0.06    0.00    0.00      -0.87   -1.50   -0.23
#  10    0.08   -1.03    0.27   -0.58   -0.09    0.00    0.00      -1.34   -2.35   -0.36
#  11    0.10   -1.30    0.45   -0.90   -0.12    0.00    0.00      -1.77   -3.50   -0.45
#  12    0.10   -1.87    1.16   -0.86   -0.12    0.00    0.00      -1.59   -3.31   -0.45
#  13    0.15   -1.81    1.61   -0.70   -0.08    0.00    0.00      -0.84   -2.76   -0.33
#  14    0.09   -0.67    0.10   -0.85   -0.05    0.00    0.00      -1.39   -3.27   -0.21
#  15   -0.02   -0.20    0.00    0.34   -0.03    0.00    0.00       0.10    2.78   -0.24
#  16    0.07   -0.22    0.01   -0.81   -0.02    0.00    0.00      -0.97   -6.52   -0.19
#  17    0.28   -0.16    0.00   -1.44    0.05    0.00    0.00      -1.26  -18.90    0.62
#  18   -0.28    0.00    0.00    1.01    0.02    0.00    0.00       0.75   17.25    0.38
#  19   -0.21    0.00    0.00    0.56    0.02    0.00    0.00       0.37   18.90    0.56
#  20    0.02   -0.05    0.00   -0.03   -0.01    0.00    0.00      -0.07   -0.97   -0.36
#  21   -0.06   -0.03    0.00    0.12    0.00    0.00    0.00       0.03    4.93   -0.15
#  22    0.24   -0.06    0.00   -0.64    0.06    0.00    0.00      -0.40  -18.25    1.61
#  23    0.08   -0.07    0.00   -0.08   -0.01    0.00    0.00      -0.09   -2.33   -0.34
#  24    0.06   -0.05    0.00   -0.06   -0.01    0.00    0.00      -0.06   -2.26   -0.44
#  25    0.07   -0.09    0.00   -0.09   -0.02    0.00    0.00      -0.13   -2.52   -0.47
#  26    0.08   -0.16    0.00   -0.18   -0.03    0.00    0.00      -0.28   -2.54   -0.46
#  27    0.03   -0.26    0.01   -0.17   -0.04    0.00    0.00      -0.42   -1.37   -0.30
#  28    0.04   -2.23    1.20   -0.43   -0.25    0.00    0.00      -1.66   -1.71   -0.99
#  29    0.06   -0.21    0.01   -0.20   -0.04    0.00    0.00      -0.37   -2.30   -0.44
#  30    0.19   -1.80    1.91   -0.87   -0.09    0.00    0.00      -0.66   -3.61   -0.38
#  31    0.15   -1.27    0.69   -0.77   -0.10    0.00    0.00      -1.30   -3.36   -0.45
#  32    0.62   -0.84    0.11   -0.86   -0.11    0.00    0.00      -1.08   -3.54   -0.45
#  33    2.17   -1.65    0.50   -1.05   -0.14    0.00    0.00      -0.17   -3.37   -0.45
#  34   16.29   -0.99    0.32   -5.20    0.17    0.00    0.00      10.59  -19.04    0.62
#  35  -14.91   -0.02    0.00    3.09    0.07    0.00    0.00     -11.76   17.51    0.42
#  36  -18.46   -0.04    0.00    4.28    0.12    0.00    0.00     -14.09   18.80    0.53
#  37    0.86   -0.46    0.03   -0.23   -0.08    0.00    0.00       0.12   -0.99   -0.36
#  38   -2.71   -0.63    0.08    1.34   -0.04    0.00    0.00      -1.96    4.95   -0.14
#  39   17.28   -2.33    1.62   -6.83    0.62    0.00    0.00      10.36  -18.13    1.64
#  40    1.50   -1.12    0.17   -0.70   -0.10    0.00    0.00      -0.26   -2.38   -0.35
#  41    0.45   -1.36    0.33   -0.68   -0.13    0.00    0.00      -1.40   -2.31   -0.44
#  42    0.31   -1.60    0.30   -0.92   -0.17    0.00    0.00      -2.07   -2.57   -0.47
#  43    0.61   -1.52    0.25   -1.01   -0.18    0.00    0.00      -1.85   -2.56   -0.46
#  44    0.36   -1.41    0.17   -0.56   -0.12    0.00    0.00      -1.57   -1.38   -0.30
#  45    0.85   -3.94    0.93   -0.98   -0.56    0.00    0.00      -3.70   -1.74   -0.99
#  46    1.33   -1.45    0.28   -0.82   -0.16    0.00    0.00      -0.81   -2.28   -0.44
#  47   -2.04   -0.22    0.01    0.72   -0.06    0.00    0.00      -1.59    3.36   -0.28
#  48   -3.63   -0.46    0.09    0.81   -0.12    0.00    0.00      -3.31    1.96   -0.28
#  49   -2.19   -0.34    0.06    1.05   -0.06    0.00    0.00      -1.48    3.52   -0.21
#  50   -2.55   -0.10    0.00    0.48   -0.02    0.00    0.00      -2.19    5.61   -0.28
#  51   -2.88   -0.57    0.46    0.95   -0.09    0.00    0.00      -2.13    2.90   -0.28
#  52   -4.39   -1.05    1.29    1.86   -0.12    0.00    0.00      -2.40    4.47   -0.28
#  53   -1.35   -0.17    0.02    0.93   -0.04    0.00    0.00      -0.61    6.41   -0.28
#  54   -0.20   -0.08    0.00    0.32   -0.02    0.00    0.00       0.02    3.80   -0.28
#  55   -0.12   -0.04    0.00    0.04   -0.01    0.00    0.00      -0.13    1.05   -0.28
#  56   -0.10   -0.04    0.00    0.09   -0.01    0.00    0.00      -0.06    2.13   -0.28
#  57   -0.07   -0.19    0.02    0.45   -0.06    0.00    0.00       0.13    2.01   -0.28
#  58   -0.11   -0.41    0.19    0.23   -0.07    0.00    0.00      -0.16    0.95   -0.28
#  59   -0.11   -0.21    0.05    0.36   -0.05    0.00    0.00       0.04    1.90   -0.28
#  60   -0.10   -0.52    0.58    0.78   -0.07    0.00    0.00       0.67    3.13   -0.28
#  61   -0.08   -0.22    0.02    1.02   -0.07    0.00    0.00       0.67    4.38   -0.28
#  62   -0.11   -0.29    0.05    0.72   -0.07    0.00    0.00       0.30    2.84   -0.28
#  63   -0.09   -0.04    0.00    0.20   -0.01    0.00    0.00       0.06    5.73   -0.28
#  64   -0.02   -0.03    0.00    0.10   -0.01    0.00    0.00       0.04    3.20   -0.28
#  65   -0.04   -0.06    0.00    0.11   -0.02    0.00    0.00       0.00    1.93   -0.28
#  66   -0.03   -0.12    0.01    0.39   -0.02    0.00    0.00       0.22    3.24   -0.21
#  67   -0.05   -0.01    0.00    0.10    0.00    0.00    0.00       0.04    6.28   -0.22
#  68   -0.07   -0.01    0.00    0.11    0.00    0.00    0.00       0.03    6.50   -0.28
#  69   -0.05    0.00    0.00    0.05    0.00    0.00    0.00       0.00    5.41   -0.28
#  70   -0.17    0.00    0.00    0.18    0.01    0.00    0.00       0.02   14.28    1.00
#  71   -0.06   -0.01    0.00    0.08    0.00    0.00    0.00       0.01    6.13   -0.23
#  72   -0.10   -0.02    0.00    0.07   -0.01    0.00    0.00      -0.06    2.78   -0.28
#  73   -0.17   -0.04    0.00    0.05   -0.01    0.00    0.00      -0.18    1.07   -0.28
#  74   -0.09   -0.08    0.01    0.32   -0.02    0.00    0.00       0.14    4.05   -0.28
#  75   -0.18   -0.21    0.04    1.12   -0.05    0.00    0.00       0.72    6.17   -0.28
#  76   -0.23   -0.15    0.01    0.54   -0.04    0.00    0.00       0.13    3.67   -0.28
#  77   -0.62   -0.12    0.01    0.26   -0.04    0.00    0.00      -0.51    1.89   -0.28
#  78   -5.23   -0.63    0.47    0.99   -0.09    0.00    0.00      -4.49    3.11   -0.28
#  79   -2.29   -0.14    0.01    0.80   -0.03    0.00    0.00      -1.65    6.73   -0.23
#  80   -1.24   -0.15    0.02    0.76   -0.03    0.00    0.00      -0.64    6.24   -0.28
#  81   -2.26   -0.13    0.01    0.72   -0.04    0.00    0.00      -1.71    5.44   -0.28
#  82  -18.56   -0.08    0.01    4.70    0.34    0.00    0.00     -13.58   14.08    1.01
#  83   -0.22   -0.30    0.10    1.13   -0.04    0.00    0.00       0.67    6.03   -0.24
#  84   -0.26   -0.43    0.11    0.81   -0.09    0.00    0.00       0.14    2.58   -0.28
#  85   -0.96   -0.37    0.10    0.34   -0.09    0.00    0.00      -0.97    1.08   -0.28
#  86   -2.55   -0.32    0.05    1.20   -0.08    0.00    0.00      -1.69    4.28   -0.28

@<TRIPOS>MOLECULE
          T526241        99
   86    89     0     0     0



@<TRIPOS>ATOM
      1 C1          3.2576    -4.8324    95.1787 C.3        1          -0.1853
      2 C2          3.3795    -5.4547    93.7862 C.3        1           0.0304
      3 C3          2.9863    -4.4207    92.7293 C.3        1          -0.1010
      4 C4          2.6296    -5.1251    91.4457 C.ar       1          -0.1260
      5 C5          1.3250    -5.5185    91.2127 C.ar       1          -0.1371
      6 C6          0.9977    -6.1648    90.0354 C.ar       1          -0.1048
      7 C7          1.9749    -6.4172    89.0909 C.ar       1          -0.0696
      8 C8          1.6183    -7.1222    87.8074 C.3        1          -0.0797
      9 C9          1.2236    -6.0886    86.7506 C.3        1          -0.0800
     10 C10         0.8669    -6.7935    85.4673 C.ar       1          -0.0694
     11 C11        -0.4374    -7.1882    85.2349 C.ar       1          -0.1042
     12 C12        -0.7647    -7.8347    84.0578 C.ar       1          -0.0998
     13 C13         0.2123    -8.0863    83.1127 C.ar       1          -0.1271
     14 C14        -0.1444    -8.7914    81.8297 C.3        1          -0.1012
     15 C15         0.0103   -10.3020    82.0178 C.3        1           0.0307
     16 C16         0.1433   -10.9752    80.6503 C.3        1          -0.1859
     17 N1         -1.1705   -10.8324    82.7120 N.4        1          -0.5055
     18 H1         -1.4524   -10.1887    83.4362 H          1           0.4281
     19 H2         -1.9251   -10.9477    82.0522 H          1           0.4262
     20 C17        -0.8424   -12.1322    83.3129 C.3        1          -0.0475
     21 C18        -2.0724   -12.6848    84.0360 C.3        1           0.1375
     22 O1         -3.2415   -12.4190    83.2586 O.3        1          -0.5458
     23 C19        -2.2033   -12.0217    85.3830 C.ar       1          -0.1310
     24 C20        -1.5891   -12.5779    86.4898 C.ar       1          -0.1045
     25 C21        -1.7084   -11.9701    87.7254 C.ar       1          -0.0962
     26 C22        -2.4422   -10.8058    87.8553 C.ar       1          -0.0902
     27 C23        -3.0569   -10.2488    86.7483 C.ar       1          -0.0306
     28 Cl1        -3.9781    -8.7864    86.9105 Cl         1          -0.0446
     29 C24        -2.9324   -10.8546    85.5105 C.ar       1          -0.0945
     30 C25         1.5163    -7.6904    83.3445 C.ar       1          -0.1338
     31 C26         1.8428    -7.0404    84.5201 C.ar       1          -0.1037
     32 C27         3.2791    -6.0225    89.3232 C.ar       1          -0.1034
     33 C28         3.6057    -5.3729    90.4990 C.ar       1          -0.0995
     34 N2          4.7667    -5.8823    93.5607 N.4        1          -0.5056
     35 H3          4.9313    -5.9815    92.5701 H          1           0.4246
     36 H4          5.3973    -5.1915    93.9390 H          1           0.4294
     37 C29         4.9962    -7.1715    94.2265 C.3        1          -0.0477
     38 C30         6.4409    -7.6168    93.9918 C.3        1           0.1384
     39 O2          7.3093    -6.4857    94.0859 O.3        1          -0.5447
     40 C31         6.8282    -8.6354    95.0327 C.ar       1          -0.1307
     41 C32         6.6187    -9.9811    94.7944 C.ar       1          -0.1038
     42 C33         6.9740   -10.9160    95.7483 C.ar       1          -0.0945
     43 C34         7.5389   -10.5059    96.9416 C.ar       1          -0.0900
     44 C35         7.7488    -9.1597    97.1805 C.ar       1          -0.0311
     45 Cl2         8.4587    -8.6440    98.6784 Cl         1          -0.0483
     46 C36         7.3981    -8.2247    96.2227 C.ar       1          -0.0950
     47 H5          3.5377    -5.5692    95.9317 H          1           0.0855
     48 H6          3.9197    -3.9697    95.2503 H          1           0.1097
     49 H7          2.2282    -4.5152    95.3460 H          1           0.0832
     50 H8          2.7172    -6.3175    93.7145 H          1           0.1404
     51 H9          2.1271    -3.8499    93.0814 H          1           0.1227
     52 H10         3.8235    -3.7455    92.5527 H          1           0.0996
     53 H11         0.5615    -5.3214    91.9508 H          1           0.1237
     54 H12        -0.0214    -6.4727    89.8537 H          1           0.1299
     55 H13         2.4778    -7.6922    87.4550 H          1           0.0791
     56 H14         0.7818    -7.7982    87.9847 H          1           0.0786
     57 H15         0.3639    -5.5186    87.1031 H          1           0.0780
     58 H16         2.0600    -5.4126    86.5734 H          1           0.0792
     59 H17        -1.2007    -6.9917    85.9734 H          1           0.1302
     60 H18        -1.7836    -8.1436    83.8765 H          1           0.1309
     61 H19        -1.1764    -8.5623    81.5638 H          1           0.0994
     62 H20         0.5192    -8.4547    81.0332 H          1           0.1227
     63 H21         0.9021   -10.5046    82.6108 H          1           0.1398
     64 H22         0.2535   -12.0513    80.7843 H          1           0.0856
     65 H23        -0.7486   -10.7724    80.0572 H          1           0.1098
     66 H24         1.0195   -10.5815    80.1351 H          1           0.0841
     67 H25        -0.5381   -12.8276    82.5307 H          1           0.1489
     68 H26        -0.0273   -12.0076    84.0257 H          1           0.1372
     69 H27        -1.9622   -13.7609    84.1701 H          1           0.1346
     70 H28        -4.0610   -12.7422    83.6575 H          1           0.3869
     71 H29        -1.0163   -13.4879    86.3889 H          1           0.1277
     72 H30        -1.2285   -12.4051    88.5897 H          1           0.1421
     73 H31        -2.5359   -10.3313    88.8210 H          1           0.1442
     74 H32        -3.4087   -10.4181    84.6451 H          1           0.1390
     75 H33         2.2795    -7.8866    82.6060 H          1           0.1232
     76 H34         2.8610    -6.7281    84.6995 H          1           0.1297
     77 H35         4.0426    -6.2196    88.5852 H          1           0.1304
     78 H36         4.6241    -5.0616    90.6790 H          1           0.1312
     79 H37         4.8182    -7.0644    95.2966 H          1           0.1418
     80 H38         4.3149    -7.9178    93.8180 H          1           0.1444
     81 H39         6.5278    -8.0601    92.9997 H          1           0.1298
     82 H40         7.1177    -5.7884    93.4439 H          1           0.3904
     83 H41         6.1768   -10.3019    93.8627 H          1           0.1300
     84 H42         6.8101   -11.9671    95.5617 H          1           0.1437
     85 H43         7.8160   -11.2365    97.6872 H          1           0.1443
     86 H44         7.5654    -7.1738    96.4071 H          1           0.1365
@<TRIPOS>BOND
     1    1    2 1
     2    1   47 1
     3    1   48 1
     4    1   49 1
     5    2    3 1
     6    2   34 1
     7    2   50 1
     8    3    4 1
     9    3   51 1
    10    3   52 1
    11    4   33 ar
    12    4    5 ar
    13    5    6 ar
    14    5   53 1
    15    6    7 ar
    16    6   54 1
    17    7    8 1
    18    7   32 ar
    19    8    9 1
    20    8   55 1
    21    8   56 1
    22    9   10 1
    23    9   57 1
    24    9   58 1
    25   10   31 ar
    26   10   11 ar
    27   11   12 ar
    28   11   59 1
    29   12   13 ar
    30   12   60 1
    31   13   14 1
    32   13   30 ar
    33   14   15 1
    34   14   61 1
    35   14   62 1
    36   15   16 1
    37   15   17 1
    38   15   63 1
    39   16   64 1
    40   16   65 1
    41   16   66 1
    42   17   18 1
    43   17   19 1
    44   17   20 1
    45   20   21 1
    46   20   67 1
    47   20   68 1
    48   21   22 1
    49   21   23 1
    50   21   69 1
    51   22   70 1
    52   23   29 ar
    53   23   24 ar
    54   24   25 ar
    55   24   71 1
    56   25   26 ar
    57   25   72 1
    58   26   27 ar
    59   26   73 1
    60   27   28 1
    61   27   29 ar
    62   29   74 1
    63   30   31 ar
    64   30   75 1
    65   31   76 1
    66   32   33 ar
    67   32   77 1
    68   33   78 1
    69   34   35 1
    70   34   36 1
    71   34   37 1
    72   37   38 1
    73   37   79 1
    74   37   80 1
    75   38   39 1
    76   38   40 1
    77   38   81 1
    78   39   82 1
    79   40   46 ar
    80   40   41 ar
    81   41   42 ar
    82   41   83 1
    83   42   43 ar
    84   42   84 1
    85   43   44 ar
    86   43   85 1
    87   44   45 1
    88   44   46 ar
    89   46   86 1
##########                 Name:              T540255
##########          Protonation:                   43
##########               SMILES:   c1ccc(c(c1)CNc2[nH+]c(nc(n2)N3CC[NH2+]CC3)NCCc4ccc(cc4)O)c5ccc(cc5)F
##########            Long Name:   hylamino]-4-piperazin-4-ium-1-yl-1,3,5-triazin-1-ium-2-yl]amino]ethyl]phenol
##########          FlexRecCode: 1
##########               Number:                  127
##########   Ligand Source File: /raidb/db2/rgc/tcams/tcams-0001984.db2.gz
##########           GlobalRank: 65
##########                 Rank:                    1
##########               Setnum:                  397
##########             Matchnum:                 4271
##########                Cloud:                    1
##########        Electrostatic:           -57.415619
##########        Van der Waals:           -25.393654
##########  Ligand Polar Desolv:            18.568632
########## Ligand Apolar Desolv:            -5.315603
##########      Internal Energy:             0.000000
##########      Receptor Energy: 0.0
########## Receptor Desolvation:             0.000000
########## Receptor Hydrophobic:             0.000000
##########         Total Energy: -69.56
##########        Ligand Charge:             2.000000
##########            Arbitrary:    +999.9990
##########     heavy atom count:   37
##########           pose count:    1
##########        Ligand Energy:             0.000000
# num electro vdwattr vdwrepu polsolv apolsol rdesolv rhydroe totalscore fullpol fullapo
#   1    1.17   -0.36    0.04   -0.90    0.17    0.00    0.00       0.12   -6.18    1.19
#   2   -0.62   -0.44    0.07    0.05   -0.04    0.00    0.00      -0.98    0.41   -0.31
#   3    1.44   -0.94    0.34   -0.59   -0.09    0.00    0.00       0.16   -3.02   -0.46
#   4    0.68   -0.54    0.04   -0.35   -0.08    0.00    0.00      -0.26   -1.95   -0.45
#   5    0.73   -0.24    0.01   -0.17   -0.04    0.00    0.00       0.29   -1.69   -0.36
#   6    0.38   -0.17    0.00   -0.26   -0.02    0.00    0.00      -0.08   -2.47   -0.23
#   7   -1.04   -0.29    0.01    0.58   -0.07    0.00    0.00      -0.81    3.25   -0.37
#   8    5.62   -0.50    0.03   -4.42    0.34    0.00    0.00       1.06  -22.40    1.73
#   9  -11.02   -0.83    0.12    5.65   -1.15    0.00    0.00      -7.23   23.67   -4.81
#  10    6.66   -0.97    0.25   -4.68    0.41    0.00    0.00       1.68  -21.22    1.84
#  11  -11.60   -1.08    0.21    5.94   -1.27    0.00    0.00      -7.79   21.98   -4.68
#  12   15.48   -1.18    0.15   -6.69    0.59    0.00    0.00       8.35  -20.86    1.84
#  13  -23.08   -1.45    0.33    7.38   -1.53    0.00    0.00     -18.35   23.22   -4.81
#  14   27.39   -2.58    2.32   -8.53    0.68    0.00    0.00      19.28  -21.19    1.68
#  15   -4.24   -1.25    0.20    1.90   -0.15    0.00    0.00      -3.54    4.16   -0.33
#  16    3.18   -1.81    0.59   -0.89   -0.16    0.00    0.00       0.91   -2.00   -0.37
#  17    2.16   -3.65    6.21   -1.05   -0.23    0.00    0.00       3.44   -2.10   -0.45
#  18    2.14   -2.99    2.85   -1.51   -0.24    0.00    0.00       0.24   -3.00   -0.47
#  19    1.29   -1.57    0.22   -1.25   -0.22    0.00    0.00      -1.53   -2.62   -0.47
#  20    1.17   -1.53    0.20   -1.14   -0.19    0.00    0.00      -1.49   -2.70   -0.46
#  21    0.41   -1.18    0.10   -0.24   -0.14    0.00    0.00      -1.05   -0.64   -0.38
#  22    0.84   -1.23    0.18   -0.39   -0.12    0.00    0.00      -0.71   -1.10   -0.33
#  23    1.26   -1.84    0.40   -0.79   -0.23    0.00    0.00      -1.21   -1.60   -0.46
#  24    3.36   -2.12    0.69   -1.64   -0.24    0.00    0.00       0.05   -3.25   -0.47
#  25   -1.68   -1.50    0.24    0.38   -0.15    0.00    0.00      -2.70    0.89   -0.34
#  26    2.48   -1.21    0.40   -1.34   -0.22    0.00    0.00       0.11   -2.93   -0.48
#  27    0.68   -1.50    0.81   -1.06   -0.15    0.00    0.00      -1.22   -3.39   -0.47
#  28    0.41   -1.51    1.03   -0.43   -0.09    0.00    0.00      -0.60   -1.72   -0.37
#  29   18.73   -1.28    0.27   -5.91    0.27    0.00    0.00      12.08  -21.73    0.99
#  30  -15.57   -0.02    0.00    3.36    0.07    0.00    0.00     -12.16   17.13    0.36
#  31   10.54   -0.99    0.08   -6.83    0.58    0.00    0.00       3.37  -20.31    1.71
#  32   -2.32   -1.10    0.19    1.21   -0.20    0.00    0.00      -2.21    2.89   -0.48
#  33    0.53   -1.77    0.72    0.16   -0.25    0.00    0.00      -0.61    0.31   -0.48
#  34   12.30   -1.33    0.13  -12.43    0.49    0.00    0.00      -0.84  -22.42    0.89
#  35  -10.76   -0.03    0.00    8.33    0.21    0.00    0.00      -2.25   22.37    0.56
#  36  -10.58   -0.02    0.00    8.98    0.22    0.00    0.00      -1.39   23.02    0.57
#  37    0.44   -1.10    0.22    0.14   -0.21    0.00    0.00      -0.51    0.33   -0.48
#  38   -1.47   -0.74    0.12    0.92   -0.16    0.00    0.00      -1.33    2.83   -0.48
#  39    0.47   -0.14    0.00   -0.12   -0.03    0.00    0.00       0.19   -1.97   -0.45
#  40    0.60   -0.17    0.00   -0.24   -0.04    0.00    0.00       0.17   -3.02   -0.46
#  41   -0.73    0.00    0.00    0.26    0.05    0.00    0.00      -0.42    6.43    1.22
#  42   -2.30   -0.37    0.19    0.32   -0.06    0.00    0.00      -2.21    1.56   -0.28
#  43   -0.59   -0.15    0.01    0.60   -0.04    0.00    0.00      -0.17    4.33   -0.28
#  44   -0.25   -0.08    0.00    0.25   -0.02    0.00    0.00      -0.09    3.24   -0.28
#  45   -0.26   -0.02    0.00    0.10   -0.01    0.00    0.00      -0.19    3.32   -0.28
#  46   -1.28   -0.05    0.00    0.23   -0.01    0.00    0.00      -1.12    4.45   -0.27
#  47   -1.93   -0.19    0.02    0.80   -0.05    0.00    0.00      -1.34    4.36   -0.27
#  48   -1.60   -0.01    0.00    1.20    0.04    0.00    0.00      -0.37   15.75    0.58
#  49  -27.06   -0.19    0.11    4.43    0.19    0.00    0.00     -22.53   13.72    0.58
#  50   -3.64   -0.70    0.23    2.18   -0.09    0.00    0.00      -2.02    4.32   -0.18
#  51   -2.81   -0.30    0.03    1.52   -0.07    0.00    0.00      -1.63    5.60   -0.26
#  52   -4.02   -0.83    0.71    2.75   -0.16    0.00    0.00      -1.55    4.84   -0.28
#  53   -2.87   -0.86    0.64    1.10   -0.14    0.00    0.00      -2.13    2.24   -0.28
#  54   -2.07   -0.28    0.02    0.56   -0.10    0.00    0.00      -1.88    1.58   -0.28
#  55   -0.64   -0.58    0.23    0.66   -0.10    0.00    0.00      -0.42    1.90   -0.28
#  56   -2.68   -0.64    0.50    1.60   -0.13    0.00    0.00      -1.35    3.46   -0.28
#  57   -5.51   -1.31    4.59    1.43   -0.14    0.00    0.00      -0.94    2.81   -0.28
#  58   -0.31   -0.21    0.05    0.64   -0.05    0.00    0.00       0.12    3.63   -0.28
#  59   -0.74   -0.21    0.06    0.76   -0.03    0.00    0.00      -0.16    5.25   -0.24
#  60   -3.66   -0.43    0.16    1.76   -0.09    0.00    0.00      -2.27    5.34   -0.28
#  61   -3.68   -0.47    0.20    1.39   -0.08    0.00    0.00      -2.64    4.08   -0.24
#  62   -3.89   -1.23    1.97    3.89   -0.13    0.00    0.00       0.62    8.42   -0.28
#  63   -3.25   -0.75    0.35    2.39   -0.12    0.00    0.00      -1.38    5.46   -0.28
#  64   -3.18   -0.60    0.62    2.78   -0.09    0.00    0.00      -0.47    8.26   -0.28
#  65   -2.50   -0.46    0.12    1.95   -0.10    0.00    0.00      -0.99    5.34   -0.28
#  66   -1.22   -0.16    0.01    0.58   -0.04    0.00    0.00      -0.83    3.74   -0.24
#  67   -2.43   -0.53    0.75    1.17   -0.06    0.00    0.00      -1.10    5.27   -0.28
#  68   -0.49   -0.02    0.00    0.10   -0.01    0.00    0.00      -0.40    4.24   -0.28
#  69   -0.37   -0.02    0.00    0.04   -0.01    0.00    0.00      -0.36    1.53   -0.28

@<TRIPOS>MOLECULE
          T540255        43
   69    73     0     0     0



@<TRIPOS>ATOM
      1 O1          9.7771    -8.6847    86.3228 O.3        1          -0.4957
      2 C1          8.5116    -8.4001    86.7281 C.ar       1           0.1245
      3 C2          7.9480    -7.1674    86.4324 C.ar       1          -0.1430
      4 C3          6.6611    -6.8808    86.8451 C.ar       1          -0.0928
      5 C4          5.9352    -7.8209    87.5529 C.ar       1          -0.1181
      6 C5          4.5319    -7.5053    88.0024 C.3        1          -0.0829
      7 C6          4.5732    -6.8662    89.3920 C.3        1           0.0863
      8 N1          3.2089    -6.5594    89.8290 N.pl3      1          -0.6484
      9 C7          2.9940    -5.9738    91.0601 C.ar       1           0.7001
     10 N2          1.7556    -5.7004    91.4591 N.ar       1          -0.6239
     11 C8          1.5486    -5.1364    92.6448 C.ar       1           0.6924
     12 N3          2.5800    -4.8458    93.4317 N.ar       1          -0.6223
     13 C9          3.8181    -5.1190    93.0329 C.ar       1           0.6988
     14 N4          4.8887    -4.8177    93.8501 N.pl3      1          -0.6383
     15 C10         4.6803    -4.6174    95.2863 C.3        1           0.1287
     16 C11         5.4926    -5.6258    96.0573 C.ar       1          -0.1248
     17 C12         6.7833    -5.3244    96.4432 C.ar       1          -0.0857
     18 C13         7.5299    -6.2489    97.1507 C.ar       1          -0.1099
     19 C14         6.9883    -7.4797    97.4761 C.ar       1          -0.0845
     20 C15         5.6991    -7.7915    97.0954 C.ar       1          -0.1009
     21 C16         4.9403    -6.8617    96.3869 C.ar       1          -0.0251
     22 C17         3.5516    -7.1890    95.9797 C.ar       1          -0.0682
     23 C18         2.4851    -6.8778    96.8209 C.ar       1          -0.0731
     24 C19         1.1951    -7.1835    96.4381 C.ar       1          -0.1465
     25 C20         0.9595    -7.7992    95.2194 C.ar       1           0.1073
     26 F1         -0.3050    -8.0968    94.8485 F          1          -0.1327
     27 C21         2.0170    -8.1100    94.3799 C.ar       1          -0.1533
     28 C22         3.3096    -7.8035    94.7527 C.ar       1          -0.0889
     29 N5          4.0248    -5.6881    91.8492 N.ar       1          -0.6326
     30 H1          4.9280    -5.8915    91.5599 H          1           0.4414
     31 N6          0.2631    -4.8522    93.0587 N.pl3      1          -0.5677
     32 C23         0.0105    -4.2227    94.3640 C.3        1           0.0920
     33 C24        -0.9118    -3.0176    94.1518 C.3        1          -0.0219
     34 N7         -2.1229    -3.4484    93.4423 N.4        1          -0.5087
     35 H2         -2.5637    -4.1970    93.9555 H          1           0.4334
     36 H3         -2.7621    -2.6712    93.3681 H          1           0.4427
     37 C25        -1.7730    -3.9199    92.0963 C.3        1          -0.0219
     38 C26        -0.8932    -5.1645    92.2044 C.3        1           0.0913
     39 C27         6.4946    -9.0504    87.8485 C.ar       1          -0.0925
     40 C28         7.7791    -9.3439    87.4333 C.ar       1          -0.1427
     41 H4         10.0804    -9.5685    86.5719 H          1           0.3983
     42 H5          8.5147    -6.4324    85.8803 H          1           0.1353
     43 H6          6.2219    -5.9214    86.6152 H          1           0.1279
     44 H7          4.0715    -6.8131    87.2976 H          1           0.0943
     45 H8          3.9479    -8.4249    88.0427 H          1           0.0939
     46 H9          5.0334    -7.5585    90.0969 H          1           0.0930
     47 H10         5.1572    -5.9467    89.3517 H          1           0.0933
     48 H11         2.4568    -6.7678    89.2532 H          1           0.4469
     49 H12         5.7791    -4.7385    93.4736 H          1           0.4462
     50 H13         4.9943    -3.6107    95.5621 H          1           0.1006
     51 H14         3.6238    -4.7457    95.5215 H          1           0.0991
     52 H15         7.2110    -4.3651    96.1918 H          1           0.1314
     53 H16         8.5395    -6.0093    97.4500 H          1           0.1368
     54 H17         7.5758    -8.1979    98.0288 H          1           0.1381
     55 H18         5.2775    -8.7528    97.3493 H          1           0.1353
     56 H19         2.6678    -6.3982    97.7711 H          1           0.1397
     57 H20         0.3680    -6.9429    97.0895 H          1           0.1426
     58 H21         1.8289    -8.5899    93.4309 H          1           0.1400
     59 H22         4.1330    -8.0428    94.0959 H          1           0.1347
     60 H23        -0.4707    -4.9396    95.0294 H          1           0.1133
     61 H24         0.9531    -3.8904    94.7990 H          1           0.1480
     62 H25        -1.1873    -2.5962    95.1186 H          1           0.1584
     63 H26        -0.3933    -2.2628    93.5607 H          1           0.1387
     64 H27        -2.6834    -4.1633    91.5484 H          1           0.1586
     65 H28        -1.2285    -3.1378    91.5674 H          1           0.1385
     66 H29        -0.5476    -5.4546    91.2121 H          1           0.1481
     67 H30        -1.4671    -5.9781    92.6479 H          1           0.1129
     68 H31         5.9255    -9.7833    88.4011 H          1           0.1284
     69 H32         8.2143   -10.3057    87.6612 H          1           0.1355
@<TRIPOS>BOND
     1    1    2 1
     2    1   41 1
     3    2   40 ar
     4    2    3 ar
     5    3    4 ar
     6    3   42 1
     7    4    5 ar
     8    4   43 1
     9    5    6 1
    10    5   39 ar
    11    6    7 1
    12    6   44 1
    13    6   45 1
    14    7    8 1
    15    7   46 1
    16    7   47 1
    17    8    9 1
    18    8   48 1
    19    9   29 ar
    20    9   10 ar
    21   10   11 ar
    22   11   12 ar
    23   11   31 1
    24   12   13 ar
    25   13   14 1
    26   13   29 ar
    27   14   15 1
    28   14   49 1
    29   15   16 1
    30   15   50 1
    31   15   51 1
    32   16   21 ar
    33   16   17 ar
    34   17   18 ar
    35   17   52 1
    36   18   19 ar
    37   18   53 1
    38   19   20 ar
    39   19   54 1
    40   20   21 ar
    41   20   55 1
    42   21   22 1
    43   22   28 ar
    44   22   23 ar
    45   23   24 ar
    46   23   56 1
    47   24   25 ar
    48   24   57 1
    49   25   26 1
    50   25   27 ar
    51   27   28 ar
    52   27   58 1
    53   28   59 1
    54   29   30 1
    55   31   38 1
    56   31   32 1
    57   32   33 1
    58   32   60 1
    59   32   61 1
    60   33   34 1
    61   33   62 1
    62   33   63 1
    63   34   35 1
    64   34   36 1
    65   34   37 1
    66   37   38 1
    67   37   64 1
    68   37   65 1
    69   38   66 1
    70   38   67 1
    71   39   40 ar
    72   39   68 1
    73   40   69 1
##########                 Name:              T529509
##########          Protonation:                   46
##########               SMILES:   c1ccc(c(c1)CNc2[nH+]c(nc(n2)N3CCC[NH2+]CC3)NCCc4ccc(cc4)O)c5ccc(cc5)C(F)(F)F
##########            Long Name:   ethyl)phenyl]phenyl]methylamino]-1,3,5-triazin-1-ium-2-yl]amino]ethyl]phenol
##########          FlexRecCode: 1
##########               Number:                  263
##########   Ligand Source File: /raidb/db2/rgc/tcams/tcams-0000542.db2.gz
##########           GlobalRank: 66
##########                 Rank:                    1
##########               Setnum:                  389
##########             Matchnum:                 2500
##########                Cloud:                    1
##########        Electrostatic:           -33.248192
##########        Van der Waals:           -34.085091
##########  Ligand Polar Desolv:             3.246746
########## Ligand Apolar Desolv:            -5.420346
##########      Internal Energy:             0.000000
##########      Receptor Energy: 0.0
########## Receptor Desolvation:             0.000000
########## Receptor Hydrophobic:             0.000000
##########         Total Energy: -69.51
##########        Ligand Charge:             2.000000
##########            Arbitrary:    +999.9990
##########     heavy atom count:   41
##########           pose count:    1
##########        Ligand Energy:             0.000000
# num electro vdwattr vdwrepu polsolv apolsol rdesolv rhydroe totalscore fullpol fullapo
#   1   15.16   -2.04    0.71   -2.90    0.55    0.00    0.00      11.48   -6.26    1.19
#   2   -3.18   -1.37    0.15    0.18   -0.13    0.00    0.00      -4.35    0.43   -0.31
#   3    3.82   -1.48    0.20   -1.26   -0.19    0.00    0.00       1.08   -3.04   -0.46
#   4    2.50   -1.10    0.07   -0.71   -0.17    0.00    0.00       0.59   -1.94   -0.46
#   5    2.04   -0.94    0.05   -0.56   -0.12    0.00    0.00       0.47   -1.68   -0.36
#   6    1.27   -0.60    0.03   -0.83   -0.08    0.00    0.00      -0.21   -2.49   -0.23
#   7   -1.00   -0.57    0.07    0.86   -0.10    0.00    0.00      -0.74    3.30   -0.37
#   8   14.20   -0.73    0.06   -5.29    0.41    0.00    0.00       8.66  -22.46    1.73
#   9  -15.40   -0.75    0.09    5.38   -1.08    0.00    0.00     -11.76   23.88   -4.81
#  10    8.66   -0.66    0.08   -4.38    0.37    0.00    0.00       4.07  -21.39    1.81
#  11   -7.95   -0.48    0.05    3.48   -0.73    0.00    0.00      -5.62   22.15   -4.63
#  12    8.96   -0.35    0.01   -3.20    0.27    0.00    0.00       5.70  -21.35    1.83
#  13  -15.55   -0.68    0.08    5.01   -0.99    0.00    0.00     -12.14   24.30   -4.81
#  14   14.81   -0.91    0.11   -5.24    0.40    0.00    0.00       9.17  -22.23    1.68
#  15   -1.70   -0.33    0.01    0.81   -0.06    0.00    0.00      -1.27    4.25   -0.33
#  16    1.29   -1.09    0.14   -0.61   -0.11    0.00    0.00      -0.39   -2.01   -0.37
#  17    0.36   -1.30    0.23   -0.70   -0.14    0.00    0.00      -1.55   -2.25   -0.45
#  18    0.45   -2.15    0.60   -1.36   -0.20    0.00    0.00      -2.67   -3.13   -0.47
#  19    0.78   -2.69    1.17   -1.47   -0.25    0.00    0.00      -2.45   -2.80   -0.47
#  20    2.58   -2.85    1.60   -1.40   -0.23    0.00    0.00      -0.30   -2.81   -0.46
#  21    0.97   -1.69    0.35   -0.33   -0.16    0.00    0.00      -0.86   -0.80   -0.38
#  22    0.56   -1.62    0.29   -0.05   -0.14    0.00    0.00      -0.96   -0.12   -0.33
#  23    3.62   -2.91    1.47   -1.13   -0.21    0.00    0.00       0.84   -2.46   -0.46
#  24    1.77   -3.32    1.96   -0.76   -0.20    0.00    0.00      -0.56   -1.63   -0.44
#  25    4.04   -2.07    1.07   -1.78   -0.15    0.00    0.00       1.12   -4.47   -0.38
#  26    1.19   -1.90    1.13   -0.62   -0.15    0.00    0.00      -0.34   -1.84   -0.44
#  27    2.94   -1.86    0.65   -0.99   -0.13    0.00    0.00       0.61   -2.73   -0.37
#  28   -7.10   -1.42    0.56    3.96   -0.03    0.00    0.00      -4.03    9.82   -0.07
#  29    2.23   -3.39    3.55   -1.90   -0.25    0.00    0.00       0.25   -3.67   -0.48
#  30    0.67   -0.44    0.03   -1.11   -0.14    0.00    0.00      -0.99   -3.56   -0.45
#  31    2.51   -1.97    2.13   -1.40   -0.18    0.00    0.00       1.09   -3.55   -0.45
#  32   18.37   -1.19    0.39   -5.29    0.24    0.00    0.00      12.51  -22.27    0.99
#  33  -17.10   -0.04    0.00    3.81    0.08    0.00    0.00     -13.25   17.49    0.36
#  34    3.97   -0.43    0.05   -2.42    0.15    0.00    0.00       1.34  -19.32    1.23
#  35   -0.66   -0.46    0.12    0.61   -0.08    0.00    0.00      -0.47    3.56   -0.46
#  36    0.90   -0.36    0.02   -1.21   -0.05    0.00    0.00      -0.69   -5.95   -0.24
#  37    0.06   -0.31    0.03    0.06   -0.07    0.00    0.00      -0.24    0.37   -0.45
#  38    1.08   -0.13    0.00   -1.38    0.05    0.00    0.00      -0.38  -21.43    0.79
#  39   -0.34    0.00    0.00    0.49    0.01    0.00    0.00       0.17   21.88    0.49
#  40   -1.02    0.00    0.00    0.54    0.01    0.00    0.00      -0.47   22.30    0.57
#  41    0.09   -0.09    0.00   -0.04   -0.03    0.00    0.00      -0.07   -0.62   -0.48
#  42   -0.43   -0.13    0.00    0.21   -0.03    0.00    0.00      -0.37    2.74   -0.41
#  43    1.08   -1.51    0.29   -0.81   -0.19    0.00    0.00      -1.14   -1.99   -0.46
#  44    2.97   -1.43    0.17   -1.41   -0.21    0.00    0.00       0.08   -3.02   -0.46
#  45  -16.96   -0.10    0.02    2.67    0.50    0.00    0.00     -13.88    6.51    1.22
#  46   -3.98   -0.49    0.15    0.57   -0.10    0.00    0.00      -3.85    1.62   -0.28
#  47   -4.52   -0.27    0.03    1.22   -0.08    0.00    0.00      -3.62    4.41   -0.28
#  48   -2.06   -0.20    0.01    0.63   -0.06    0.00    0.00      -1.67    3.06   -0.28
#  49   -0.94   -0.23    0.02    0.77   -0.07    0.00    0.00      -0.45    3.30   -0.28
#  50   -1.06   -0.17    0.01    0.74   -0.04    0.00    0.00      -0.52    4.66   -0.27
#  51   -0.02   -0.42    0.35    0.84   -0.05    0.00    0.00       0.70    4.32   -0.27
#  52  -12.65   -0.01    0.00    2.01    0.08    0.00    0.00     -10.58   15.39    0.58
#  53  -14.87   -0.03    0.00    4.09    0.16    0.00    0.00     -10.64   14.87    0.58
#  54   -1.39   -0.08    0.00    0.31   -0.01    0.00    0.00      -1.16    4.63   -0.18
#  55   -0.74   -0.06    0.00    0.30   -0.01    0.00    0.00      -0.51    5.55   -0.26
#  56   -0.44   -0.14    0.01    0.63   -0.04    0.00    0.00       0.02    4.83   -0.28
#  57   -0.46   -0.49    0.16    0.89   -0.11    0.00    0.00      -0.01    2.23   -0.28
#  58   -1.20   -0.47    0.09    0.81   -0.14    0.00    0.00      -0.90    1.66   -0.28
#  59   -4.17   -0.68    0.37    1.07   -0.13    0.00    0.00      -3.55    2.21   -0.28
#  60   -5.97   -1.15    1.65    2.02   -0.14    0.00    0.00      -3.59    4.06   -0.28
#  61   -3.33   -1.65    3.39    1.86   -0.14    0.00    0.00       0.13    3.53   -0.27
#  62   -0.43   -0.24    0.05    0.75   -0.05    0.00    0.00       0.07    3.74   -0.27
#  63   -2.88   -0.43    0.13    1.75   -0.08    0.00    0.00      -1.51    5.43   -0.24
#  64   -0.50   -0.14    0.02    0.28   -0.04    0.00    0.00      -0.37    2.16   -0.28
#  65   -0.98   -0.30    0.24    0.45   -0.04    0.00    0.00      -0.63    2.99   -0.24
#  66   -0.73   -0.18    0.01    1.02   -0.05    0.00    0.00       0.09    5.53   -0.25
#  67   -0.45   -0.11    0.01    0.36   -0.03    0.00    0.00      -0.21    3.88   -0.28
#  68   -1.19   -0.16    0.03    0.97   -0.04    0.00    0.00      -0.40    6.88   -0.28
#  69   -0.65   -0.11    0.01    0.43   -0.02    0.00    0.00      -0.34    4.16   -0.24
#  70   -0.24   -0.04    0.00    0.31   -0.01    0.00    0.00       0.02    8.80   -0.28
#  71   -0.11   -0.01    0.00    0.10   -0.01    0.00    0.00      -0.03    4.74   -0.28
#  72   -0.71   -0.02    0.00    0.11   -0.01    0.00    0.00      -0.63    3.99   -0.24
#  73   -0.45   -0.05    0.00    0.28   -0.01    0.00    0.00      -0.23    6.18   -0.28
#  74   -0.19   -0.70    0.52    1.47   -0.10    0.00    0.00       1.00    4.14   -0.28
#  75   -3.44   -0.45    0.15    0.66   -0.12    0.00    0.00      -3.20    1.52   -0.28

@<TRIPOS>MOLECULE
          T529509        46
   75    79     0     0     0



@<TRIPOS>ATOM
      1 O1          0.5078    -4.8260    95.6869 O.3        1          -0.4956
      2 C1          1.7220    -5.4361    95.6978 C.ar       1           0.1244
      3 C2          2.8293    -4.7898    95.1681 C.ar       1          -0.1431
      4 C3          4.0626    -5.4121    95.1808 C.ar       1          -0.0930
      5 C4          4.1938    -6.6782    95.7205 C.ar       1          -0.1178
      6 C5          5.5403    -7.3549    95.7326 C.3        1          -0.0833
      7 C6          5.7161    -8.1636    94.4457 C.3        1           0.0869
      8 N1          5.6304    -7.2672    93.2901 N.pl3      1          -0.6485
      9 C7          6.3281    -7.5605    92.1361 C.ar       1           0.6974
     10 N2          7.0736    -8.6593    92.0711 N.ar       1          -0.6183
     11 C8          7.7455    -8.9418    90.9595 C.ar       1           0.6769
     12 N3          7.6721    -8.1255    89.9127 N.ar       1          -0.6252
     13 C9          6.9267    -7.0269    89.9776 C.ar       1           0.6981
     14 N4          6.8501    -6.1798    88.8908 N.pl3      1          -0.6422
     15 C10         7.2019    -6.6683    87.5552 C.3        1           0.1276
     16 C11         7.0344    -5.5553    86.5530 C.ar       1          -0.1200
     17 C12         5.8217    -5.3719    85.9196 C.ar       1          -0.0857
     18 C13         5.6666    -4.3508    84.9998 C.ar       1          -0.1054
     19 C14         6.7245    -3.5079    84.7094 C.ar       1          -0.0850
     20 C15         7.9410    -3.6819    85.3371 C.ar       1          -0.0969
     21 C16         8.1015    -4.7061    86.2684 C.ar       1          -0.0376
     22 C17         9.4059    -4.8950    86.9502 C.ar       1          -0.0184
     23 C18         9.6642    -4.2478    88.1569 C.ar       1          -0.1052
     24 C19        10.8790    -4.4274    88.7869 C.ar       1          -0.0625
     25 C20        11.8390    -5.2480    88.2227 C.ar       1          -0.1780
     26 C21        11.5880    -5.8926    87.0249 C.ar       1          -0.0676
     27 C22        10.3746    -5.7246    86.3891 C.ar       1          -0.1199
     28 C23        13.1636    -5.4402    88.9156 C.3        1           0.5066
     29 F1         13.1837    -4.6940    90.0987 F          1          -0.1851
     30 F2         13.3405    -6.7952    89.2156 F          1          -0.1698
     31 F3         14.1961    -5.0101    88.0752 F          1          -0.1698
     32 N5          6.2503    -6.7471    91.0876 N.ar       1          -0.6333
     33 H1          5.7029    -5.9477    91.1334 H          1           0.4405
     34 N6          8.5198   -10.0824    90.8923 N.pl3      1          -0.5544
     35 C24         8.5716   -10.9441    92.0407 C.3        1           0.1011
     36 C25         7.4374   -11.9921    91.9736 C.3        1          -0.1608
     37 C26         7.7006   -13.0323    90.9577 C.3        1          -0.0103
     38 N7          7.9194   -12.4809    89.5985 N.4        1          -0.4928
     39 H2          7.7825   -13.2299    88.9366 H          1           0.4280
     40 H3          7.2051   -11.7890    89.4283 H          1           0.4361
     41 C27         9.1962   -11.8757    89.3195 C.3        1          -0.0442
     42 C28         9.2572   -10.3656    89.6325 C.3        1           0.0954
     43 C29         3.0919    -7.3244    96.2495 C.ar       1          -0.0924
     44 C30         1.8575    -6.7042    96.2440 C.ar       1          -0.1426
     45 H4         -0.2007    -5.3527    96.0815 H          1           0.3981
     46 H5          2.7272    -3.8010    94.7458 H          1           0.1352
     47 H6          4.9248    -4.9092    94.7685 H          1           0.1278
     48 H7          6.3251    -6.6015    95.7983 H          1           0.0946
     49 H8          5.6040    -8.0218    96.5924 H          1           0.0939
     50 H9          6.6900    -8.6531    94.4544 H          1           0.0922
     51 H10         4.9313    -8.9172    94.3800 H          1           0.0929
     52 H11         5.0833    -6.4676    93.3362 H          1           0.4473
     53 H12         6.5632    -5.2611    89.0112 H          1           0.4453
     54 H13         8.2382    -7.0060    87.5532 H          1           0.1003
     55 H14         6.5486    -7.4989    87.2883 H          1           0.0999
     56 H15         4.9926    -6.0270    86.1426 H          1           0.1330
     57 H16         4.7163    -4.2113    84.5061 H          1           0.1382
     58 H17         6.5979    -2.7124    83.9900 H          1           0.1395
     59 H18         8.7663    -3.0236    85.1093 H          1           0.1361
     60 H19         8.9157    -3.6066    88.5981 H          1           0.1424
     61 H20        11.0805    -3.9260    89.7221 H          1           0.1424
     62 H21        12.3412    -6.5319    86.5887 H          1           0.1407
     63 H22        10.1779    -6.2318    85.4561 H          1           0.1378
     64 H23         9.5339   -11.4554    92.0648 H          1           0.1034
     65 H24         8.4573   -10.3466    92.9452 H          1           0.1218
     66 H25         7.3360   -12.4674    92.9492 H          1           0.0990
     67 H26         6.5026   -11.4874    91.7299 H          1           0.1370
     68 H27         8.5863   -13.5943    91.2539 H          1           0.1471
     69 H28         6.8502   -13.7134    90.9260 H          1           0.1261
     70 H29         9.9579   -12.3858    89.9093 H          1           0.1582
     71 H30         9.4248   -12.0200    88.2636 H          1           0.1313
     72 H31         8.8044    -9.8067    88.8135 H          1           0.1409
     73 H32        10.2985   -10.0639    89.7459 H          1           0.1190
     74 H33         3.1970    -8.3133    96.6709 H          1           0.1285
     75 H34         0.9977    -7.2080    96.6606 H          1           0.1355
@<TRIPOS>BOND
     1    1    2 1
     2    1   45 1
     3    2   44 ar
     4    2    3 ar
     5    3    4 ar
     6    3   46 1
     7    4    5 ar
     8    4   47 1
     9    5    6 1
    10    5   43 ar
    11    6    7 1
    12    6   48 1
    13    6   49 1
    14    7    8 1
    15    7   50 1
    16    7   51 1
    17    8    9 1
    18    8   52 1
    19    9   32 ar
    20    9   10 ar
    21   10   11 ar
    22   11   12 ar
    23   11   34 1
    24   12   13 ar
    25   13   14 1
    26   13   32 ar
    27   14   15 1
    28   14   53 1
    29   15   16 1
    30   15   54 1
    31   15   55 1
    32   16   21 ar
    33   16   17 ar
    34   17   18 ar
    35   17   56 1
    36   18   19 ar
    37   18   57 1
    38   19   20 ar
    39   19   58 1
    40   20   21 ar
    41   20   59 1
    42   21   22 1
    43   22   27 ar
    44   22   23 ar
    45   23   24 ar
    46   23   60 1
    47   24   25 ar
    48   24   61 1
    49   25   26 ar
    50   25   28 1
    51   26   27 ar
    52   26   62 1
    53   27   63 1
    54   28   29 1
    55   28   30 1
    56   28   31 1
    57   32   33 1
    58   34   42 1
    59   34   35 1
    60   35   36 1
    61   35   64 1
    62   35   65 1
    63   36   37 1
    64   36   66 1
    65   36   67 1
    66   37   38 1
    67   37   68 1
    68   37   69 1
    69   38   39 1
    70   38   40 1
    71   38   41 1
    72   41   42 1
    73   41   70 1
    74   41   71 1
    75   42   72 1
    76   42   73 1
    77   43   44 ar
    78   43   74 1
    79   44   75 1
##########                 Name:              T526841
##########          Protonation:                   33
##########               SMILES:   Cc1[nH+]ccn1CCNc2[nH]c3cc(c(cc3/c(=N/CCc4ccccc4)/[nH+]2)OC)OC
##########            Long Name:   ethylimidazol-3-ium-1-yl)ethyl]-4-phenethylimino-1H-quinazolin-3-ium-2-amine
##########          FlexRecCode: 1
##########               Number:                  105
##########   Ligand Source File: /raidb/db2/rgc/tcams/tcams-0000219.db2.gz
##########           GlobalRank: 67
##########                 Rank:                    1
##########               Setnum:                  263
##########             Matchnum:                 7141
##########                Cloud:                    1
##########        Electrostatic:           -47.919510
##########        Van der Waals:           -33.663357
##########  Ligand Polar Desolv:            16.504078
########## Ligand Apolar Desolv:            -4.373297
##########      Internal Energy:             0.000000
##########      Receptor Energy: 0.0
########## Receptor Desolvation:             0.000000
########## Receptor Hydrophobic:             0.000000
##########         Total Energy: -69.45
##########        Ligand Charge:             2.000000
##########            Arbitrary:    +999.9990
##########     heavy atom count:   32
##########           pose count:    1
##########        Ligand Energy:             0.000000
# num electro vdwattr vdwrepu polsolv apolsol rdesolv rhydroe totalscore fullpol fullapo
#   1   -0.10   -0.48    0.10    0.01    0.01    0.00    0.00      -0.47    0.04    0.03
#   2    4.49   -0.96    0.22   -1.55    0.15    0.00    0.00       2.35   -6.03    0.60
#   3   -3.45   -0.64    0.04    0.45   -0.07    0.00    0.00      -3.67    2.07   -0.31
#   4   -1.90   -0.55    0.02   -0.01   -0.06    0.00    0.00      -2.49   -0.04   -0.31
#   5    4.70   -0.51    0.01   -1.14    0.14    0.00    0.00       3.21   -4.84    0.61
#   6   -0.39   -0.65    0.03    0.10    0.01    0.00    0.00      -0.90    0.27    0.03
#   7    0.98   -0.80    0.15   -0.40   -0.08    0.00    0.00      -0.15   -1.90   -0.40
#   8    1.22   -0.60    0.04   -0.68   -0.09    0.00    0.00      -0.10   -3.16   -0.41
#   9   -2.90   -0.61    0.07    1.32   -0.14    0.00    0.00      -2.26    6.95   -0.72
#  10   11.95   -0.58    0.05   -4.39    0.21    0.00    0.00       7.23  -22.45    1.05
#  11  -11.43   -0.71    0.11    6.24   -0.95    0.00    0.00      -6.74   31.52   -4.80
#  12    8.52   -0.62    0.09   -5.14    0.30    0.00    0.00       3.16  -29.09    1.71
#  13   -1.01   -0.31    0.02    0.29   -0.07    0.00    0.00      -1.08    1.65   -0.39
#  14   -2.18   -1.14    0.49    1.15   -0.13    0.00    0.00      -1.81    3.72   -0.43
#  15   11.52   -2.04    1.23   -6.52    0.42    0.00    0.00       4.61  -17.79    1.14
#  16   -0.80   -2.58    1.44    0.54   -0.40    0.00    0.00      -1.80    1.32   -0.98
#  17   -0.74   -3.03    1.49   -0.76   -0.49    0.00    0.00      -3.53   -1.57   -1.02
#  18   17.28   -4.00    3.09   -9.09    0.52    0.00    0.00       7.80  -19.23    1.10
#  19  -23.95   -0.26    0.14    9.15    0.29    0.00    0.00     -14.63   18.45    0.59
#  20   -8.22   -1.86    0.47    5.35   -0.88    0.00    0.00      -5.13   13.34   -2.20
#  21    1.87   -0.91    0.11   -2.05   -0.08    0.00    0.00      -1.05   -5.29   -0.20
#  22    7.64   -1.11    0.40   -5.04    0.21    0.00    0.00       2.09  -23.03    0.94
#  23   -4.53   -0.03    0.00    3.37    0.05    0.00    0.00      -1.15   19.57    0.27
#  24   -4.35   -0.80    0.09    3.19   -0.51    0.00    0.00      -2.38   13.20   -2.12
#  25    3.03   -1.16    0.20   -4.24    0.83    0.00    0.00      -1.34  -15.20    2.96
#  26   -0.30   -0.76    0.12    0.48   -0.15    0.00    0.00      -0.61    1.60   -0.48
#  27    0.35   -0.99    0.13   -0.67   -0.09    0.00    0.00      -1.28   -1.72   -0.24
#  28    0.78   -1.85    0.53   -0.82   -0.14    0.00    0.00      -1.50   -2.04   -0.36
#  29    1.41   -1.64    0.25   -1.42   -0.22    0.00    0.00      -1.61   -2.97   -0.45
#  30    2.02   -2.33    0.44   -1.69   -0.27    0.00    0.00      -1.84   -2.92   -0.47
#  31    2.02   -2.90    0.67   -1.91   -0.28    0.00    0.00      -2.40   -3.22   -0.47
#  32    1.52   -3.30    1.97   -1.51   -0.25    0.00    0.00      -1.56   -2.81   -0.47
#  33    0.85   -3.37    2.55   -1.13   -0.20    0.00    0.00      -1.30   -2.55   -0.45
#  34    4.38   -0.77    0.10   -1.02   -0.09    0.00    0.00       2.60   -4.62   -0.42
#  35   -0.29   -0.27    0.15    0.45   -0.05    0.00    0.00      -0.01    2.60   -0.26
#  36   -0.41   -0.09    0.01    0.13   -0.03    0.00    0.00      -0.38    1.41   -0.28
#  37   -0.39   -0.08    0.00    0.20   -0.02    0.00    0.00      -0.28    2.58   -0.26
#  38   -1.77   -0.26    0.03    0.40   -0.08    0.00    0.00      -1.69    1.29   -0.26
#  39   -1.51   -0.20    0.01    0.25   -0.05    0.00    0.00      -1.50    1.28   -0.26
#  40   -3.05   -0.24    0.02    0.29   -0.07    0.00    0.00      -3.05    1.20   -0.28
#  41   -0.48   -0.32    0.20    0.52   -0.04    0.00    0.00      -0.12    2.82   -0.20
#  42   -9.70   -0.01    0.00    2.14    0.06    0.00    0.00      -7.51   21.03    0.58
#  43   -3.78   -0.01    0.00    2.29    0.05    0.00    0.00      -1.45   23.71    0.57
#  44   -1.05   -0.06    0.00    0.36   -0.01    0.00    0.00      -0.76    6.97   -0.27
#  45   -1.47   -0.06    0.00    0.39   -0.01    0.00    0.00      -1.16    7.08   -0.26
#  46   -4.73   -0.57    0.35    2.65   -0.09    0.00    0.00      -2.39    8.37   -0.27
#  47   -2.95   -0.49    0.24    2.53   -0.08    0.00    0.00      -0.74    8.38   -0.28
#  48   -8.87   -0.59    0.28    3.83   -0.10    0.00    0.00      -5.45   11.14   -0.28
#  49   -9.02   -0.71    0.36    3.92   -0.13    0.00    0.00      -5.58    8.30   -0.28
#  50   -2.50   -0.39    0.13    1.51   -0.09    0.00    0.00      -1.34    4.52   -0.28
#  51   -1.46   -0.43    0.10    1.70   -0.11    0.00    0.00      -0.20    4.23   -0.28
#  52   -0.94   -0.11    0.00    0.71   -0.03    0.00    0.00      -0.36    7.10   -0.25
#  53   -0.67   -0.18    0.01    0.26   -0.05    0.00    0.00      -0.62    1.54   -0.28
#  54   -0.27   -0.54    0.69    0.93   -0.04    0.00    0.00       0.77    4.51   -0.20
#  55    0.14   -0.65    0.25    1.24   -0.11    0.00    0.00       0.87    3.22   -0.28
#  56   -0.68   -0.22    0.01    0.11   -0.07    0.00    0.00      -0.85    0.43   -0.28
#  57   -1.61   -0.27    0.02    0.47   -0.09    0.00    0.00      -1.48    1.43   -0.28
#  58   -3.00   -0.62    0.15    0.58   -0.16    0.00    0.00      -3.05    1.04   -0.28
#  59   -2.35   -1.00    0.51    1.24   -0.17    0.00    0.00      -1.77    1.99   -0.28
#  60   -1.56   -0.74    0.39    2.60   -0.14    0.00    0.00       0.54    5.15   -0.28
#  61    0.03   -0.88    0.54    3.01   -0.11    0.00    0.00       2.59    7.60   -0.28
#  62   -3.87   -0.18    0.02    1.31   -0.04    0.00    0.00      -2.76    7.13   -0.22

@<TRIPOS>MOLECULE
          T526841        33
   62    65     0     0     0



@<TRIPOS>ATOM
      1 C1          1.2251    -6.0341    91.0664 C.3        1           0.0152
      2 O1          2.3029    -5.4262    91.7809 O.3        1          -0.2809
      3 C2          3.3071    -6.2427    92.1944 C.ar       1           0.1753
      4 C3          3.2349    -6.8498    93.4494 C.ar       1           0.1220
      5 O2          2.1603    -6.6210    94.2519 O.3        1          -0.2869
      6 C4          2.2466    -5.5142    95.1516 C.3        1           0.0164
      7 C5          4.2500    -7.6821    93.8795 C.ar       1          -0.0932
      8 C6          5.3465    -7.9113    93.0527 C.ar       1          -0.0825
      9 C7          5.4189    -7.3001    91.7906 C.ar       1           0.1348
     10 N1          6.5283    -7.5527    90.9951 N.pl3      1          -0.5764
     11 C8          7.5193    -8.3758    91.4363 C.cat      1           0.7324
     12 N2          8.5960    -8.5974    90.6201 N.pl3      1          -0.6934
     13 C9          8.8975    -7.6608    89.5347 C.3        1           0.0689
     14 C10         9.1560    -6.2702    90.1180 C.3        1           0.0900
     15 N3          9.4575    -5.3337    89.0326 N.pl3      1          -0.4198
     16 C11         8.5535    -4.5722    88.3423 C.2        1           0.0228
     17 C12         9.2533    -3.8598    87.4389 C.2        1           0.0196
     18 N4         10.5494    -4.1777    87.5737 N.pl3      1          -0.4692
     19 H1         11.2756    -3.8098    87.0463 H          1           0.4692
     20 C13        10.6797    -5.0563    88.5300 C.cat      1           0.3211
     21 C14        11.9787    -5.6634    88.9938 C.3        1          -0.1203
     22 N5          7.4899    -8.9658    92.6079 N.pl3      1          -0.6064
     23 H2          8.2270    -9.5412    92.8658 H          1           0.4381
     24 C15         6.4601    -8.7922    93.4635 C.2        1           0.3875
     25 N6          6.4479    -9.3922    94.6335 N.2        1          -0.4796
     26 C16         7.4874   -10.3691    94.9665 C.3        1           0.0457
     27 C17         7.2428   -10.9139    96.3752 C.3        1          -0.0770
     28 C18         7.2834    -9.7796    97.3666 C.ar       1          -0.0953
     29 C19         8.4804    -9.4207    97.9576 C.ar       1          -0.1062
     30 C20         8.5176    -8.3802    98.8669 C.ar       1          -0.1068
     31 C21         7.3579    -7.6984    99.1850 C.ar       1          -0.1129
     32 C22         6.1612    -8.0567    98.5932 C.ar       1          -0.1207
     33 C23         6.1247    -9.0944    97.6806 C.ar       1          -0.1266
     34 C24         4.3926    -6.4717    91.3658 C.ar       1          -0.1863
     35 H3          0.4935    -5.2728    90.7956 H          1           0.0647
     36 H4          1.6093    -6.5068    90.1624 H          1           0.1187
     37 H5          0.7502    -6.7865    91.6961 H          1           0.0648
     38 H6          1.3259    -5.4443    95.7310 H          1           0.0651
     39 H7          3.0903    -5.6593    95.8263 H          1           0.0652
     40 H8          2.3893    -4.5947    94.5840 H          1           0.1169
     41 H9          4.1936    -8.1515    94.8506 H          1           0.1723
     42 H10         6.5977    -7.1408    90.1196 H          1           0.4515
     43 H11         9.1592    -9.3745    90.7605 H          1           0.4445
     44 H12         9.7833    -8.0000    88.9977 H          1           0.1096
     45 H13         8.0517    -7.6154    88.8485 H          1           0.1041
     46 H14         8.2701    -5.9310    90.6550 H          1           0.1384
     47 H15        10.0016    -6.3155    90.8042 H          1           0.1460
     48 H16         7.4843    -4.5476    88.4929 H          1           0.2288
     49 H17         8.8431    -3.1560    86.7300 H          1           0.2307
     50 H18        12.8013    -5.2529    88.4080 H          1           0.1304
     51 H19        12.1322    -5.4317    90.0477 H          1           0.1255
     52 H20        11.9423    -6.7447    88.8611 H          1           0.1094
     53 H21         7.4581   -11.1896    94.2496 H          1           0.1172
     54 H22         8.4645    -9.8875    94.9278 H          1           0.0274
     55 H23         6.2658   -11.3956    96.4139 H          1           0.0720
     56 H24         8.0164   -11.6407    96.6230 H          1           0.0982
     57 H25         9.3865    -9.9534    97.7092 H          1           0.1290
     58 H26         9.4527    -8.1003    99.3292 H          1           0.1314
     59 H27         7.3869    -6.8860    99.8960 H          1           0.1280
     60 H28         5.2550    -7.5243    98.8420 H          1           0.1197
     61 H29         5.1904    -9.3720    97.2156 H          1           0.1084
     62 H30         4.4412    -6.0030    90.3940 H          1           0.1636
@<TRIPOS>BOND
     1    1    2 1
     2    1   35 1
     3    1   36 1
     4    1   37 1
     5    2    3 1
     6    3   34 ar
     7    3    4 ar
     8    4    5 1
     9    4    7 ar
    10    5    6 1
    11    6   38 1
    12    6   39 1
    13    6   40 1
    14    7    8 ar
    15    7   41 1
    16    8   24 1
    17    8    9 ar
    18    9   10 1
    19    9   34 ar
    20   10   11 1
    21   10   42 1
    22   11   12 1
    23   11   22 2
    24   12   13 1
    25   12   43 1
    26   13   14 1
    27   13   44 1
    28   13   45 1
    29   14   15 1
    30   14   46 1
    31   14   47 1
    32   15   20 1
    33   15   16 1
    34   16   17 2
    35   16   48 1
    36   17   18 1
    37   17   49 1
    38   18   19 1
    39   18   20 2
    40   20   21 1
    41   21   50 1
    42   21   51 1
    43   21   52 1
    44   22   23 1
    45   22   24 1
    46   24   25 2
    47   25   26 1
    48   26   27 1
    49   26   53 1
    50   26   54 1
    51   27   28 1
    52   27   55 1
    53   27   56 1
    54   28   33 ar
    55   28   29 ar
    56   29   30 ar
    57   29   57 1
    58   30   31 ar
    59   30   58 1
    60   31   32 ar
    61   31   59 1
    62   32   33 ar
    63   32   60 1
    64   33   61 1
    65   34   62 1
##########                 Name:              T538314
##########          Protonation:                   43
##########               SMILES:   c1ccc(cc1)CN2CC[C@@H](CC2)[NH2+]Cc3c(cccc3)c4cc(ccc4)C[NH2+]Cc5cc6c(cc5)OCO6
##########            Long Name:   -[[3-[2-[[(1-benzyl-4-piperidyl)ammonio]methyl]phenyl]phenyl]methyl]ammonium
##########          FlexRecCode: 1
##########               Number:                  380
##########   Ligand Source File: /raidb/db2/rgc/tcams/tcams-0001860.db2.gz
##########           GlobalRank: 68
##########                 Rank:                    1
##########               Setnum:                  352
##########             Matchnum:                  719
##########                Cloud:                    1
##########        Electrostatic:           -47.755669
##########        Van der Waals:           -29.057709
##########  Ligand Polar Desolv:            10.752046
########## Ligand Apolar Desolv:            -3.316382
##########      Internal Energy:             0.000000
##########      Receptor Energy: 0.0
########## Receptor Desolvation:             0.000000
########## Receptor Hydrophobic:             0.000000
##########         Total Energy: -69.38
##########        Ligand Charge:             2.000000
##########            Arbitrary:    +999.9990
##########     heavy atom count:   39
##########           pose count:    1
##########        Ligand Energy:             0.000000
# num electro vdwattr vdwrepu polsolv apolsol rdesolv rhydroe totalscore fullpol fullapo
#   1   -1.14   -0.75    0.20    0.63   -0.10    0.00    0.00      -1.16    2.57   -0.42
#   2   13.03   -0.68    0.14   -5.34    0.16    0.00    0.00       7.31  -24.61    0.74
#   3   -6.29   -0.01    0.00    1.72    0.04    0.00    0.00      -4.53   22.34    0.57
#   4  -13.44   -0.02    0.00    4.19    0.11    0.00    0.00      -9.16   22.29    0.57
#   5   -1.41   -0.55    0.07    0.89   -0.10    0.00    0.00      -1.09    3.72   -0.42
#   6    3.10   -0.79    0.04   -0.82   -0.10    0.00    0.00       1.43   -2.98   -0.37
#   7    1.60   -1.13    0.11   -0.68   -0.17    0.00    0.00      -0.27   -1.77   -0.45
#   8    1.65   -1.36    0.17   -1.45   -0.20    0.00    0.00      -1.19   -3.44   -0.47
#   9   -0.85   -1.29    0.12   -0.44   -0.13    0.00    0.00      -2.59   -1.17   -0.33
#  10    2.82   -1.54    0.37   -1.96    0.22    0.00    0.00      -0.09   -4.63    0.52
#  11   -1.40   -0.94    0.12    1.12    0.01    0.00    0.00      -1.10    2.79    0.02
#  12    0.56   -1.57    0.35   -1.95    0.19    0.00    0.00      -2.43   -5.36    0.52
#  13   -0.22   -1.41    0.32   -0.38   -0.11    0.00    0.00      -1.80   -1.16   -0.33
#  14    0.60   -1.16    0.34   -0.51   -0.12    0.00    0.00      -0.86   -1.90   -0.45
#  15    3.00   -0.63    0.06   -0.94   -0.07    0.00    0.00       1.41   -4.72   -0.37
#  16    1.80   -1.26    0.28   -0.75   -0.12    0.00    0.00      -0.04   -2.76   -0.43
#  17    0.67   -0.66    0.05   -0.68   -0.06    0.00    0.00      -0.67   -3.29   -0.28
#  18    0.61   -0.28    0.01   -0.44   -0.04    0.00    0.00      -0.14   -3.86   -0.37
#  19    0.71   -0.15    0.00   -0.35   -0.03    0.00    0.00       0.19   -5.52   -0.47
#  20    0.85   -0.23    0.00   -0.28   -0.04    0.00    0.00       0.31   -3.10   -0.45
#  21    0.22   -1.30    0.29   -0.03   -0.12    0.00    0.00      -0.93   -0.10   -0.37
#  22    0.40   -1.89    0.67   -1.31   -0.17    0.00    0.00      -2.29   -3.62   -0.46
#  23    0.36   -2.35    0.65   -1.73   -0.22    0.00    0.00      -3.29   -3.73   -0.47
#  24    1.48   -3.04    2.44   -2.43   -0.26    0.00    0.00      -1.80   -4.47   -0.47
#  25    2.35   -2.63    1.26   -1.40   -0.21    0.00    0.00      -0.63   -3.01   -0.45
#  26    3.38   -1.49    0.24   -1.45   -0.14    0.00    0.00       0.54   -3.73   -0.37
#  27   -0.83   -0.72    0.06    0.63   -0.12    0.00    0.00      -0.99    1.74   -0.34
#  28    8.31   -0.58    0.04   -5.52    0.16    0.00    0.00       2.41  -20.83    0.60
#  29   -4.78   -0.01    0.00    2.02    0.05    0.00    0.00      -2.72   20.95    0.49
#  30   -7.97   -0.02    0.00    4.45    0.08    0.00    0.00      -3.46   18.45    0.35
#  31   -0.27   -0.32    0.01    0.60   -0.05    0.00    0.00      -0.03    2.97   -0.27
#  32    1.93   -0.69    0.12   -1.53   -0.07    0.00    0.00      -0.24   -4.90   -0.23
#  33   -0.26   -0.52    0.03    0.26   -0.12    0.00    0.00      -0.61    0.84   -0.39
#  34    0.70   -0.36    0.01   -2.27    0.46    0.00    0.00      -1.46  -15.53    3.16
#  35   -0.11   -0.20    0.01    0.29   -0.05    0.00    0.00      -0.06    2.35   -0.39
#  36    0.05   -0.14    0.00   -0.08   -0.02    0.00    0.00      -0.19   -1.37   -0.34
#  37    0.06   -0.13    0.00   -0.11   -0.02    0.00    0.00      -0.20   -2.05   -0.45
#  38    0.04   -0.08    0.00   -0.07   -0.02    0.00    0.00      -0.13   -2.16   -0.47
#  39    0.01   -0.05    0.00   -0.06   -0.01    0.00    0.00      -0.12   -2.30   -0.47
#  40   -0.02   -0.10    0.00   -0.10   -0.02    0.00    0.00      -0.25   -2.36   -0.47
#  41   -0.01   -0.16    0.00   -0.14   -0.03    0.00    0.00      -0.32   -2.02   -0.37
#  42   -0.07   -0.16    0.00    0.04   -0.03    0.00    0.00      -0.22    0.46   -0.37
#  43    0.29   -0.16    0.00   -0.42   -0.02    0.00    0.00      -0.31   -4.55   -0.23
#  44   -2.76   -0.11    0.00    1.11   -0.03    0.00    0.00      -1.79    9.46   -0.28
#  45   -6.60   -0.87    1.10    3.10   -0.09    0.00    0.00      -3.36   10.07   -0.28
#  46   -5.60   -0.36    0.21    1.87   -0.06    0.00    0.00      -3.94    9.20   -0.28
#  47   -2.81   -0.10    0.00    0.90   -0.03    0.00    0.00      -2.04    9.68   -0.28
#  48   -4.05   -0.32    0.07    2.56   -0.08    0.00    0.00      -1.83    8.44   -0.28
#  49   -2.50   -0.44    0.22    0.67   -0.09    0.00    0.00      -2.14    2.02   -0.28
#  50   -1.34   -0.21    0.02    0.37   -0.06    0.00    0.00      -1.22    1.88   -0.28
#  51   -0.52   -0.39    0.09    0.64   -0.09    0.00    0.00      -0.28    1.88   -0.28
#  52   -0.41   -0.27    0.10    1.18   -0.05    0.00    0.00       0.55    6.87   -0.28
#  53   -5.26   -0.82    0.78    2.76   -0.10    0.00    0.00      -2.64    8.13   -0.28
#  54   -0.56   -0.07    0.01    0.30   -0.02    0.00    0.00      -0.34    4.01   -0.25
#  55   -0.59   -0.02    0.00    0.09   -0.01    0.00    0.00      -0.53    3.45   -0.28
#  56   -1.12   -0.04    0.00    0.26   -0.01    0.00    0.00      -0.91    6.89   -0.28
#  57   -0.39   -0.34    0.13    1.02   -0.06    0.00    0.00       0.35    4.74   -0.28
#  58   -0.56   -0.53    0.17    0.88   -0.13    0.00    0.00      -0.17    1.93   -0.28
#  59   -1.79   -0.52    0.21    0.92   -0.15    0.00    0.00      -1.32    1.72   -0.28
#  60   -5.38   -0.80    0.83    2.15   -0.12    0.00    0.00      -3.33    4.86   -0.28
#  61   -4.77   -0.34    0.05    2.33   -0.08    0.00    0.00      -2.81    6.50   -0.21
#  62   -3.86   -0.22    0.03    1.49   -0.04    0.00    0.00      -2.59    7.13   -0.17
#  63   -2.11   -0.10    0.00    0.88   -0.03    0.00    0.00      -1.36    8.76   -0.28
#  64   -0.74   -0.29    0.09    1.04   -0.04    0.00    0.00       0.06    4.99   -0.21
#  65   -3.24   -0.39    0.14    0.70   -0.09    0.00    0.00      -2.88    2.11   -0.28
#  66   -0.21   -0.25    0.04    0.76   -0.05    0.00    0.00       0.30    3.12   -0.22
#  67   -0.78   -0.19    0.01    0.27   -0.07    0.00    0.00      -0.76    1.05   -0.28
#  68   -0.08   -0.07    0.00    0.14   -0.02    0.00    0.00      -0.03    1.98   -0.28
#  69   -0.11   -0.08    0.00    0.10   -0.02    0.00    0.00      -0.11    1.14   -0.27
#  70   -0.13   -0.04    0.00    0.08   -0.01    0.00    0.00      -0.10    1.71   -0.28
#  71   -0.05   -0.02    0.00    0.02   -0.01    0.00    0.00      -0.05    1.14   -0.28
#  72    0.00   -0.01    0.00    0.02    0.00    0.00    0.00       0.01    1.35   -0.28
#  73    0.05   -0.03    0.00    0.06   -0.01    0.00    0.00       0.07    2.61   -0.28
#  74    0.06   -0.06    0.01    0.30   -0.02    0.00    0.00       0.29    4.45   -0.28
#  75   -0.03   -0.03    0.00    0.10   -0.01    0.00    0.00       0.04    3.44   -0.24
#  76   -0.42   -0.07    0.00    0.09   -0.01    0.00    0.00      -0.41    1.26   -0.20
#  77   -0.44   -0.03    0.00    0.07   -0.01    0.00    0.00      -0.41    2.10   -0.28
#  78   -0.18   -0.05    0.00    0.31   -0.01    0.00    0.00       0.07    6.74   -0.28

@<TRIPOS>MOLECULE
          T538314        43
   78    83     0     0     0



@<TRIPOS>ATOM
      1 C1          4.7484    -6.2291    91.2547 C.3        1           0.0402
      2 N1          5.4078    -6.9698    92.3386 N.4        1          -0.5103
      3 H1          5.2035    -7.9536    92.2463 H          1           0.4293
      4 H2          6.4051    -6.8268    92.2853 H          1           0.4272
      5 C2          4.9122    -6.4862    93.6341 C.3        1           0.0535
      6 C3          5.5887    -7.2460    94.7459 C.ar       1          -0.1694
      7 C4          6.0735    -6.5680    95.8490 C.ar       1          -0.0748
      8 C5          6.6950    -7.2600    96.8723 C.ar       1          -0.1019
      9 C6          6.8327    -8.6351    96.7928 C.ar       1           0.0796
     10 O1          7.3884    -9.5519    97.6339 O.3        1          -0.2951
     11 C7          7.6451   -10.7246    96.8469 C.3        1           0.2108
     12 O2          6.6080   -10.6435    95.8578 O.3        1          -0.2998
     13 C8          6.3442    -9.3183    95.6810 C.ar       1           0.0396
     14 C9          5.7180    -8.6203    94.6629 C.ar       1          -0.0803
     15 C10         5.2567    -6.7251    89.9256 C.ar       1          -0.1529
     16 C11         5.6078    -5.8227    88.9418 C.ar       1          -0.0883
     17 C12         6.0780    -6.2827    87.7138 C.ar       1          -0.0657
     18 C13         6.1913    -7.6528    87.4857 C.ar       1          -0.0880
     19 C14         5.8374    -8.5462    88.4763 C.ar       1          -0.1035
     20 C15         5.3761    -8.0837    89.6957 C.ar       1          -0.0795
     21 C16         6.4565    -5.3174    86.6523 C.ar       1          -0.0400
     22 C17         5.5051    -4.8812    85.7320 C.ar       1          -0.0983
     23 C18         5.8627    -3.9835    84.7468 C.ar       1          -0.0797
     24 C19         7.1629    -3.5170    84.6712 C.ar       1          -0.1007
     25 C20         8.1110    -3.9465    85.5819 C.ar       1          -0.0818
     26 C21         7.7629    -4.8395    86.5754 C.ar       1          -0.1478
     27 C22         8.7956    -5.3014    87.5710 C.3        1           0.0312
     28 N2          9.4667    -6.5034    87.0585 N.4        1          -0.5078
     29 H3          8.7857    -7.2343    86.9168 H          1           0.4186
     30 H4          9.9172    -6.2889    86.1815 H          1           0.4225
     31 C23        10.4734    -6.9536    88.0291 C.3        1           0.0247
     32 C24        11.7444    -6.1142    87.8760 C.3        1          -0.1397
     33 C25        12.8018    -6.6209    88.8594 C.3        1           0.0389
     34 N3         13.0923    -8.0340    88.5841 N.3        1          -0.5268
     35 C26        13.6632    -8.2019    87.2411 C.3        1           0.0966
     36 C27        14.3888    -9.5207    87.1651 C.ar       1          -0.0946
     37 C28        14.4732   -10.1948    85.9612 C.ar       1          -0.0941
     38 C29        15.1389   -11.4042    85.8915 C.ar       1          -0.1144
     39 C30        15.7204   -11.9395    87.0255 C.ar       1          -0.1094
     40 C31        15.6369   -11.2650    88.2292 C.ar       1          -0.1193
     41 C32        14.9749   -10.0533    88.2980 C.ar       1          -0.1204
     42 C33        11.8963    -8.8688    88.7559 C.3        1           0.0335
     43 C34        10.8143    -8.4232    87.7698 C.3        1          -0.1357
     44 H5          3.6710    -6.3834    91.3123 H          1           0.1446
     45 H6          4.9691    -5.1662    91.3544 H          1           0.1410
     46 H7          5.1327    -5.4234    93.7338 H          1           0.1417
     47 H8          3.8347    -6.6407    93.6916 H          1           0.1452
     48 H9          5.9667    -5.4951    95.9115 H          1           0.1478
     49 H10         7.0732    -6.7280    97.7326 H          1           0.1518
     50 H11         8.6306   -10.6757    96.3838 H          1           0.1470
     51 H12         7.5416   -11.6281    97.4477 H          1           0.0981
     52 H13         5.3343    -9.1481    93.8024 H          1           0.1431
     53 H14         5.5178    -4.7618    89.1237 H          1           0.1394
     54 H15         6.5548    -8.0149    86.5354 H          1           0.1411
     55 H16         5.9247    -9.6082    88.3006 H          1           0.1462
     56 H17         5.1040    -8.7861    90.4697 H          1           0.1416
     57 H18         4.4901    -5.2454    85.7897 H          1           0.1339
     58 H19         5.1262    -3.6450    84.0331 H          1           0.1418
     59 H20         7.4386    -2.8150    83.8982 H          1           0.1428
     60 H21         9.1246    -3.5790    85.5185 H          1           0.1390
     61 H22         9.5313    -4.5119    87.7241 H          1           0.1443
     62 H23         8.3086    -5.5331    88.5183 H          1           0.1397
     63 H24        10.0811    -6.8427    89.0399 H          1           0.1420
     64 H25        12.1209    -6.2052    86.8573 H          1           0.0952
     65 H26        11.5190    -5.0694    88.0897 H          1           0.1252
     66 H27        13.7134    -6.0342    88.7466 H          1           0.0269
     67 H28        12.4283    -6.5189    89.8783 H          1           0.1075
     68 H29        12.8628    -8.1846    86.5013 H          1           0.0482
     69 H30        14.3623    -7.3904    87.0393 H          1           0.0946
     70 H31        14.0188    -9.7765    85.0752 H          1           0.1244
     71 H32        15.2041   -11.9312    84.9510 H          1           0.1277
     72 H33        16.2398   -12.8847    86.9712 H          1           0.1268
     73 H34        16.0909   -11.6833    89.1153 H          1           0.1238
     74 H35        14.9129    -9.5245    89.2376 H          1           0.1133
     75 H36        12.1516    -9.9117    88.5679 H          1           0.0246
     76 H37        11.5239    -8.7643    89.7750 H          1           0.1101
     77 H38         9.9221    -9.0341    87.9071 H          1           0.1246
     78 H39        11.1815    -8.5377    86.7496 H          1           0.0891
@<TRIPOS>BOND
     1    1    2 1
     2    1   15 1
     3    1   44 1
     4    1   45 1
     5    2    3 1
     6    2    4 1
     7    2    5 1
     8    5    6 1
     9    5   46 1
    10    5   47 1
    11    6   14 ar
    12    6    7 ar
    13    7    8 ar
    14    7   48 1
    15    8    9 ar
    16    8   49 1
    17    9   13 ar
    18    9   10 1
    19   10   11 1
    20   11   12 1
    21   11   50 1
    22   11   51 1
    23   12   13 1
    24   13   14 ar
    25   14   52 1
    26   15   20 ar
    27   15   16 ar
    28   16   17 ar
    29   16   53 1
    30   17   18 ar
    31   17   21 1
    32   18   19 ar
    33   18   54 1
    34   19   20 ar
    35   19   55 1
    36   20   56 1
    37   21   26 ar
    38   21   22 ar
    39   22   23 ar
    40   22   57 1
    41   23   24 ar
    42   23   58 1
    43   24   25 ar
    44   24   59 1
    45   25   26 ar
    46   25   60 1
    47   26   27 1
    48   27   28 1
    49   27   61 1
    50   27   62 1
    51   28   29 1
    52   28   30 1
    53   28   31 1
    54   31   43 1
    55   31   32 1
    56   31   63 1
    57   32   33 1
    58   32   64 1
    59   32   65 1
    60   33   34 1
    61   33   66 1
    62   33   67 1
    63   34   35 1
    64   34   42 1
    65   35   36 1
    66   35   68 1
    67   35   69 1
    68   36   41 ar
    69   36   37 ar
    70   37   38 ar
    71   37   70 1
    72   38   39 ar
    73   38   71 1
    74   39   40 ar
    75   39   72 1
    76   40   41 ar
    77   40   73 1
    78   41   74 1
    79   42   43 1
    80   42   75 1
    81   42   76 1
    82   43   77 1
    83   43   78 1
##########                 Name:              T529446
##########          Protonation:                   99
##########               SMILES:   H](C)[NH2+]C[C@@H](c2cc(c(c(c2)Cl)N)Cl)O)[NH2+]C[C@@H](c3cc(c(c(c3)Cl)N)Cl)O
##########            Long Name:   hloro-phenyl)-2-hydroxy-ethyl]ammonio]propyl]phenyl]-1-methyl-ethyl]ammonium
##########          FlexRecCode: 1
##########               Number:                  108
##########   Ligand Source File: /raidb/db2/rgc/tcams/tcams-0000681.db2.gz
##########           GlobalRank: 69
##########                 Rank:                    1
##########               Setnum:                   27
##########             Matchnum:                 4901
##########                Cloud:                    1
##########        Electrostatic:           -37.002300
##########        Van der Waals:           -26.955612
##########  Ligand Polar Desolv:            -3.864530
########## Ligand Apolar Desolv:            -1.547956
##########      Internal Energy:             0.000000
##########      Receptor Energy: 0.0
########## Receptor Desolvation:             0.000000
########## Receptor Hydrophobic:             0.000000
##########         Total Energy: -69.37
##########        Ligand Charge:             2.000000
##########            Arbitrary:    +999.9990
##########     heavy atom count:   38
##########           pose count:    1
##########        Ligand Energy:             0.000000
# num electro vdwattr vdwrepu polsolv apolsol rdesolv rhydroe totalscore fullpol fullapo
#   1    0.36   -0.08    0.00   -0.44   -0.01    0.00    0.00      -0.17   -7.71   -0.18
#   2   -0.10   -0.08    0.00    0.20   -0.01    0.00    0.00       0.00    3.61   -0.24
#   3    0.27   -0.18    0.00   -0.50   -0.02    0.00    0.00      -0.43   -4.30   -0.21
#   4    0.54   -0.42    0.02   -0.62   -0.06    0.00    0.00      -0.54   -3.57   -0.33
#   5    1.43   -1.01    0.15   -1.27   -0.12    0.00    0.00      -0.83   -4.77   -0.45
#   6    2.10   -1.57    0.49   -1.43   -0.13    0.00    0.00      -0.55   -4.78   -0.45
#   7    1.50   -0.90    0.18   -0.80   -0.07    0.00    0.00      -0.08   -3.62   -0.33
#   8    2.04   -0.62    0.07   -1.22   -0.06    0.00    0.00       0.20   -4.34   -0.21
#   9   -0.62   -0.43    0.01    0.94   -0.06    0.00    0.00      -0.16    3.64   -0.24
#  10    4.85   -0.83    0.10   -3.11   -0.07    0.00    0.00       0.95   -7.75   -0.18
#  11   12.37   -0.65    0.02   -6.67    0.18    0.00    0.00       5.26  -22.66    0.62
#  12  -12.55   -0.01    0.00    3.57    0.06    0.00    0.00      -8.94   22.80    0.38
#  13  -12.24   -0.02    0.00    5.05    0.13    0.00    0.00      -7.08   22.26    0.56
#  14    0.84   -0.53    0.03   -0.47   -0.10    0.00    0.00      -0.23   -1.63   -0.36
#  15   -3.31   -0.63    0.04    2.41   -0.05    0.00    0.00      -1.55    6.95   -0.15
#  16   19.56   -1.46    0.60   -9.22    0.61    0.00    0.00      10.08  -24.45    1.61
#  17    2.78   -1.00    0.07   -1.41   -0.11    0.00    0.00       0.33   -4.22   -0.34
#  18    0.37   -1.03    0.14   -0.17   -0.12    0.00    0.00      -0.81   -0.59   -0.42
#  19    0.70   -1.18    0.18   -1.00   -0.09    0.00    0.00      -1.39   -3.32   -0.29
#  20    0.20   -2.03    0.43   -0.54   -0.26    0.00    0.00      -2.19   -1.92   -0.93
#  21   -2.12   -1.22    0.13    1.13   -0.25    0.00    0.00      -2.33    3.27   -0.73
#  22    6.88   -1.14    0.06   -6.41    0.41    0.00    0.00      -0.20  -13.96    0.89
#  23    1.24   -1.43    0.17   -1.35   -0.12    0.00    0.00      -1.48   -3.30   -0.29
#  24    0.54   -4.31    2.17   -1.17   -0.51    0.00    0.00      -3.29   -2.15   -0.93
#  25    0.44   -1.30    0.11   -0.53   -0.18    0.00    0.00      -1.47   -1.28   -0.44
#  26    0.71   -0.46    0.03   -0.79   -0.06    0.00    0.00      -0.57   -4.96   -0.38
#  27    0.35   -0.31    0.01   -0.59   -0.04    0.00    0.00      -0.59   -5.01   -0.38
#  28    4.13   -0.15    0.00   -1.59    0.04    0.00    0.00       2.44  -22.55    0.62
#  29   -4.08    0.00    0.00    0.83    0.02    0.00    0.00      -3.23   21.46    0.53
#  30   -5.24    0.00    0.00    1.07    0.02    0.00    0.00      -4.15   23.15    0.42
#  31    0.31   -0.10    0.00   -0.11   -0.02    0.00    0.00       0.07   -1.73   -0.36
#  32   -1.49   -0.18    0.01    0.73   -0.02    0.00    0.00      -0.95    6.61   -0.15
#  33    9.93   -0.45    0.02   -4.31    0.31    0.00    0.00       5.51  -22.06    1.61
#  34    1.75   -0.25    0.01   -0.43   -0.03    0.00    0.00       1.04   -4.28   -0.34
#  35    0.49   -0.35    0.01   -0.20   -0.06    0.00    0.00      -0.11   -1.39   -0.42
#  36    1.01   -0.32    0.01   -0.40   -0.04    0.00    0.00       0.26   -3.30   -0.29
#  37    0.64   -1.45    0.12   -0.62   -0.27    0.00    0.00      -1.57   -2.15   -0.93
#  38   -0.72   -0.20    0.00    0.24   -0.05    0.00    0.00      -0.73    3.24   -0.73
#  39    1.51   -0.22    0.00   -1.27    0.08    0.00    0.00       0.10  -13.90    0.89
#  40    0.28   -0.14    0.00   -0.20   -0.02    0.00    0.00      -0.08   -3.39   -0.29
#  41    0.03   -0.20    0.00   -0.09   -0.04    0.00    0.00      -0.29   -1.91   -0.93
#  42    0.16   -0.18    0.00   -0.03   -0.03    0.00    0.00      -0.08   -0.44   -0.44
#  43   -0.14   -0.01    0.00    0.08    0.00    0.00    0.00      -0.08    3.59   -0.21
#  44   -0.15   -0.02    0.00    0.04   -0.01    0.00    0.00      -0.14    1.58   -0.28
#  45   -0.21   -0.04    0.00    0.13   -0.01    0.00    0.00      -0.13    3.07   -0.28
#  46   -0.21   -0.02    0.00    0.20   -0.01    0.00    0.00      -0.03    7.66   -0.28
#  47   -0.28   -0.09    0.00    0.43   -0.03    0.00    0.00       0.03    4.51   -0.28
#  48   -0.21   -0.04    0.00    0.10   -0.01    0.00    0.00      -0.16    2.39   -0.28
#  49   -3.11   -0.27    0.04    0.74   -0.07    0.00    0.00      -2.67    3.05   -0.28
#  50   -5.48   -0.63    0.36    1.01   -0.09    0.00    0.00      -4.82    3.04   -0.28
#  51   -2.38   -0.38    0.14    1.34   -0.08    0.00    0.00      -1.37    4.69   -0.28
#  52   -2.30   -0.15    0.01    0.37   -0.04    0.00    0.00      -2.12    2.40   -0.28
#  53   -1.79   -0.11    0.00    0.73   -0.03    0.00    0.00      -1.19    7.49   -0.28
#  54   -2.07   -0.26    0.02    1.06   -0.09    0.00    0.00      -1.34    3.21   -0.28
#  55   -3.01   -0.36    0.08    0.57   -0.10    0.00    0.00      -2.83    1.57   -0.28
#  56   -2.70   -0.36    0.17    0.95   -0.06    0.00    0.00      -2.01    3.59   -0.21
#  57   -2.11   -0.20    0.01    1.39   -0.05    0.00    0.00      -0.96    6.46   -0.22
#  58   -1.06   -0.19    0.04    1.22   -0.04    0.00    0.00      -0.03    8.79   -0.28
#  59   -3.14   -0.32    0.08    1.59   -0.07    0.00    0.00      -1.86    6.54   -0.28
#  60  -17.40   -0.05    0.00    5.79    0.28    0.00    0.00     -11.37   20.57    1.00
#  61   -1.28   -0.14    0.01    1.13   -0.03    0.00    0.00      -0.31    8.99   -0.23
#  62   -3.60   -0.02    0.00    1.36    0.11    0.00    0.00      -2.15    6.12    0.50
#  63   -3.58   -0.02    0.00    1.51    0.13    0.00    0.00      -1.96    5.64    0.50
#  64   -2.26   -0.32    0.05    1.69   -0.09    0.00    0.00      -0.93    5.21   -0.28
#  65   -0.51   -0.08    0.00    0.63   -0.02    0.00    0.00       0.02    8.12   -0.28
#  66   -0.19   -0.04    0.00    0.32   -0.01    0.00    0.00       0.09    8.03   -0.28
#  67   -0.38   -0.04    0.00    0.44   -0.01    0.00    0.00       0.00    9.50   -0.28
#  68   -0.49   -0.02    0.00    0.14   -0.01    0.00    0.00      -0.37    5.92   -0.23
#  69   -0.97   -0.06    0.00    0.54   -0.02    0.00    0.00      -0.49    9.91   -0.28
#  70   -9.11   -0.01    0.00    1.90    0.12    0.00    0.00      -7.09   15.34    1.00
#  71   -2.76   -0.10    0.00    0.63   -0.03    0.00    0.00      -2.25    5.43   -0.23
#  72   -0.88   -0.01    0.00    0.44    0.04    0.00    0.00      -0.41    5.62    0.50
#  73   -0.55    0.00    0.00    0.19    0.02    0.00    0.00      -0.35    6.07    0.50
#  74   -0.52   -0.03    0.00    0.27   -0.01    0.00    0.00      -0.29    9.05   -0.28

@<TRIPOS>MOLECULE
          T529446        99
   74    76     0     0     0



@<TRIPOS>ATOM
      1 C1          4.6446    -9.1933    86.9173 C.3        1          -0.1878
      2 C2          4.1836    -8.6132    88.2559 C.3        1           0.0313
      3 C3          3.3725    -7.3399    88.0075 C.3        1          -0.1083
      4 C4          2.9183    -6.7685    89.3260 C.ar       1          -0.1078
      5 C5          3.7125    -5.8554    89.9939 C.ar       1          -0.0919
      6 C6          3.2959    -5.3313    91.2034 C.ar       1          -0.0914
      7 C7          2.0847    -5.7200    91.7445 C.ar       1          -0.1093
      8 C8          1.6307    -5.1490    93.0632 C.3        1          -0.1081
      9 C9          2.1333    -6.0366    94.2035 C.3        1           0.0313
     10 C10         1.2969    -5.7777    95.4581 C.3        1          -0.1879
     11 N1          3.5420    -5.7260    94.4813 N.4        1          -0.5064
     12 H1          4.0311    -5.5753    93.6118 H          1           0.4220
     13 H2          3.5974    -4.8925    95.0472 H          1           0.4286
     14 C11         4.1580    -6.8486    95.2014 C.3        1          -0.0514
     15 C12         5.6252    -6.5251    95.4908 C.3        1           0.1501
     16 O1          6.2008    -5.8698    94.3589 O.3        1          -0.5477
     17 C13         6.3760    -7.8021    95.7674 C.ar       1          -0.1932
     18 C14         6.4349    -8.7905    94.8022 C.ar       1          -0.0390
     19 C15         7.1223    -9.9633    95.0524 C.ar       1          -0.1084
     20 Cl1         7.1955   -11.2034    93.8398 Cl         1          -0.0415
     21 C16         7.7549   -10.1483    96.2757 C.ar       1           0.2650
     22 N2          8.4515   -11.3332    96.5324 N.pl3      1          -0.8465
     23 C17         7.6938    -9.1527    97.2432 C.ar       1          -0.1088
     24 Cl2         8.4828    -9.3780    98.7731 Cl         1          -0.0347
     25 C18         7.0091    -7.9803    96.9839 C.ar       1          -0.0316
     26 C19         1.2898    -6.6320    91.0759 C.ar       1          -0.1262
     27 C20         1.7047    -7.1532    89.8646 C.ar       1          -0.1279
     28 N3          5.3561    -8.2938    89.0811 N.4        1          -0.5057
     29 H3          6.0780    -7.8949    88.4997 H          1           0.4313
     30 H4          5.0944    -7.6304    89.7949 H          1           0.4192
     31 C21         5.8588    -9.5207    89.7134 C.3        1          -0.0533
     32 C22         7.0801    -9.1879    90.5729 C.3        1           0.1516
     33 O2          6.8600    -7.9516    91.2549 O.3        1          -0.5465
     34 C23         8.2963    -9.0656    89.6916 C.ar       1          -0.1926
     35 C24         8.6333    -7.8399    89.1473 C.ar       1          -0.0373
     36 C25         9.7479    -7.7242    88.3381 C.ar       1          -0.1077
     37 Cl3        10.1702    -6.1850    87.6553 Cl         1          -0.0357
     38 C26        10.5304    -8.8414    88.0721 C.ar       1           0.2642
     39 N4         11.6589    -8.7280    87.2543 N.pl3      1          -0.8469
     40 C27        10.1889   -10.0713    88.6212 C.ar       1          -0.1101
     41 Cl4        11.1631   -11.4702    88.2929 Cl         1          -0.0407
     42 C28         9.0758   -10.1784    89.4337 C.ar       1          -0.0337
     43 H5          5.2225   -10.1005    87.0943 H          1           0.0859
     44 H6          3.7746    -9.4304    86.3050 H          1           0.1112
     45 H7          5.2654    -8.4625    86.3992 H          1           0.0872
     46 H8          3.5628    -9.3441    88.7742 H          1           0.1411
     47 H9          3.9932    -6.6090    87.4894 H          1           0.1045
     48 H10         2.5023    -7.5769    87.3952 H          1           0.1273
     49 H11         4.6589    -5.5518    89.5712 H          1           0.1389
     50 H12         3.9168    -4.6186    91.7256 H          1           0.1388
     51 H13         2.0334    -4.1429    93.1814 H          1           0.1044
     52 H14         0.5417    -5.1095    93.0864 H          1           0.1275
     53 H15         2.0421    -7.0839    93.9159 H          1           0.1406
     54 H16         1.6551    -6.4101    96.2704 H          1           0.0875
     55 H17         1.3881    -4.7304    95.7459 H          1           0.1113
     56 H18         0.2517    -6.0082    95.2520 H          1           0.0866
     57 H19         3.6298    -7.0113    96.1408 H          1           0.1518
     58 H20         4.0982    -7.7490    94.5902 H          1           0.1370
     59 H21         5.6884    -5.8709    96.3604 H          1           0.1364
     60 H22         5.7665    -5.0386    94.1228 H          1           0.3788
     61 H23         5.9430    -8.6459    93.8516 H          1           0.1319
     62 H24         8.4936   -12.0273    95.8561 H          1           0.4122
     63 H25         8.8927   -11.4611    97.3867 H          1           0.4137
     64 H26         6.9647    -7.2044    97.7337 H          1           0.1445
     65 H27         0.3432    -6.9353    91.4984 H          1           0.1319
     66 H28         1.0821    -7.8632    89.3405 H          1           0.1326
     67 H29         5.0790    -9.9514    90.3416 H          1           0.1444
     68 H30         6.1415   -10.2373    88.9424 H          1           0.1429
     69 H31         7.2383    -9.9821    91.3025 H          1           0.1284
     70 H32         6.7115    -7.1987    90.6666 H          1           0.3912
     71 H33         8.0248    -6.9722    89.3544 H          1           0.1385
     72 H34        11.8964    -7.8688    86.8718 H          1           0.4134
     73 H35        12.2042    -9.5086    87.0694 H          1           0.4122
     74 H36         8.8121   -11.1332    89.8641 H          1           0.1368
@<TRIPOS>BOND
     1    1    2 1
     2    1   43 1
     3    1   44 1
     4    1   45 1
     5    2    3 1
     6    2   28 1
     7    2   46 1
     8    3    4 1
     9    3   47 1
    10    3   48 1
    11    4   27 ar
    12    4    5 ar
    13    5    6 ar
    14    5   49 1
    15    6    7 ar
    16    6   50 1
    17    7    8 1
    18    7   26 ar
    19    8    9 1
    20    8   51 1
    21    8   52 1
    22    9   10 1
    23    9   11 1
    24    9   53 1
    25   10   54 1
    26   10   55 1
    27   10   56 1
    28   11   12 1
    29   11   13 1
    30   11   14 1
    31   14   15 1
    32   14   57 1
    33   14   58 1
    34   15   16 1
    35   15   17 1
    36   15   59 1
    37   16   60 1
    38   17   25 ar
    39   17   18 ar
    40   18   19 ar
    41   18   61 1
    42   19   20 1
    43   19   21 ar
    44   21   22 1
    45   21   23 ar
    46   22   62 1
    47   22   63 1
    48   23   24 1
    49   23   25 ar
    50   25   64 1
    51   26   27 ar
    52   26   65 1
    53   27   66 1
    54   28   29 1
    55   28   30 1
    56   28   31 1
    57   31   32 1
    58   31   67 1
    59   31   68 1
    60   32   33 1
    61   32   34 1
    62   32   69 1
    63   33   70 1
    64   34   42 ar
    65   34   35 ar
    66   35   36 ar
    67   35   71 1
    68   36   37 1
    69   36   38 ar
    70   38   39 1
    71   38   40 ar
    72   39   72 1
    73   39   73 1
    74   40   41 1
    75   40   42 ar
    76   42   74 1
##########                 Name:              T529065
##########          Protonation:                   90
##########               SMILES:   c1cc2c(cc1)O[C@@]3(C[NH+](C2)CC4CCOCC4)CC[NH+](CC3)Cc5c6c([nH]c5)cncc6
##########            Long Name:   4-ylmethyl)spiro[4,5-dihydro-3H-1,4-benzoxazepin-4-ium-2,4'-piperidin-1-ium]
##########          FlexRecCode: 1
##########               Number:                    8
##########   Ligand Source File: /raidb/db2/rgc/tcams/tcams-0000485.db2.gz
##########           GlobalRank: 70
##########                 Rank:                    1
##########               Setnum:                   22
##########             Matchnum:                 5449
##########                Cloud:                    1
##########        Electrostatic:           -42.096573
##########        Van der Waals:           -28.731560
##########  Ligand Polar Desolv:             4.377939
########## Ligand Apolar Desolv:            -2.880775
##########      Internal Energy:             0.000000
##########      Receptor Energy: 0.0
########## Receptor Desolvation:             0.000000
########## Receptor Hydrophobic:             0.000000
##########         Total Energy: -69.33
##########        Ligand Charge:             2.000000
##########            Arbitrary:    +999.9990
##########     heavy atom count:   33
##########           pose count:    1
##########        Ligand Energy:             0.000000
# num electro vdwattr vdwrepu polsolv apolsol rdesolv rhydroe totalscore fullpol fullapo
#   1    0.14   -0.60    0.06    0.25   -0.09    0.00    0.00      -0.24    0.84   -0.31
#   2    2.55   -0.79    0.06   -1.63   -0.06    0.00    0.00       0.13   -4.01   -0.15
#   3    3.24   -1.05    0.24   -2.01   -0.08    0.00    0.00       0.33   -5.05   -0.21
#   4   -1.43   -1.40    0.38    0.23   -0.08    0.00    0.00      -2.29    0.42   -0.14
#   5    8.69   -1.81    0.19   -5.70    0.88    0.00    0.00       2.24   -8.96    1.38
#   6   -1.32   -2.28    1.05    0.36   -0.09    0.00    0.00      -2.29    0.58   -0.14
#   7    3.32   -1.77    0.52   -2.04   -0.11    0.00    0.00      -0.10   -4.09   -0.23
#   8    4.99   -0.56    0.04   -3.96    0.06    0.00    0.00       0.57  -16.21    0.25
#   9   -5.17   -0.02    0.00    3.70    0.05    0.00    0.00      -1.44   20.63    0.27
#  10   -0.70   -0.71    0.09    0.56   -0.13    0.00    0.00      -0.89    1.64   -0.37
#  11    3.70   -0.87    0.05   -1.99   -0.10    0.00    0.00       0.78   -5.88   -0.30
#  12    1.64   -1.55    0.21   -1.16   -0.19    0.00    0.00      -1.05   -2.67   -0.45
#  13    2.74   -2.45    0.75   -2.45   -0.22    0.00    0.00      -1.63   -5.17   -0.47
#  14    1.52   -1.51    0.23   -1.33   -0.19    0.00    0.00      -1.27   -3.31   -0.47
#  15    2.40   -0.81    0.04   -1.46   -0.11    0.00    0.00       0.07   -4.87   -0.37
#  16   -1.26   -0.79    0.08    1.27   -0.04    0.00    0.00      -0.75    5.25   -0.18
#  17    1.09   -0.92    0.29   -2.82    0.17    0.00    0.00      -2.20  -12.93    0.77
#  18   -0.79   -0.29    0.01    0.70   -0.01    0.00    0.00      -0.36    4.63   -0.04
#  19    0.46   -0.29    0.03   -1.34   -0.02    0.00    0.00      -1.16   -9.85   -0.16
#  20    0.08   -0.33    0.05   -0.12   -0.05    0.00    0.00      -0.38   -0.86   -0.36
#  21    6.03   -0.32    0.01   -2.39    0.04    0.00    0.00       3.37  -16.00    0.27
#  22   -6.09    0.00    0.00    1.26    0.03    0.00    0.00      -4.80   22.71    0.54
#  23   -1.52   -0.34    0.02    0.80   -0.07    0.00    0.00      -1.12    4.16   -0.39
#  24    4.38   -0.95    0.21   -1.80   -0.09    0.00    0.00       1.75   -7.58   -0.36
#  25   -3.23   -2.32    1.91    1.35   -0.29    0.00    0.00      -2.59    4.56   -0.99
#  26    8.65   -2.41    1.67   -4.92    0.36    0.00    0.00       3.34  -15.95    1.17
#  27   -0.29   -1.37    0.49   -0.04   -0.22    0.00    0.00      -1.43   -0.13   -0.80
#  28   -0.89   -1.16    0.13    0.18   -0.33    0.00    0.00      -2.07    0.53   -0.98
#  29    2.45   -1.50    0.24   -2.96    0.73    0.00    0.00      -1.04   -8.23    2.04
#  30   -0.44   -1.51    0.42   -0.14   -0.30    0.00    0.00      -1.96   -0.47   -0.97
#  31    0.67   -0.87    0.18   -0.51   -0.09    0.00    0.00      -0.61   -2.30   -0.39
#  32    0.49   -0.89    0.16   -0.38   -0.08    0.00    0.00      -0.70   -1.62   -0.36
#  33    0.41   -0.53    0.09   -0.20   -0.06    0.00    0.00      -0.29   -0.94   -0.28
#  34    2.40   -0.38    0.02   -1.13   -0.04    0.00    0.00       0.87   -5.41   -0.21
#  35    0.19   -0.27    0.01   -0.39   -0.05    0.00    0.00      -0.52   -2.30   -0.28
#  36   -1.29   -0.28    0.13    1.55   -0.05    0.00    0.00       0.06    8.76   -0.27
#  37   -2.82   -0.18    0.01    1.34   -0.05    0.00    0.00      -1.70    7.37   -0.28
#  38   -2.71   -0.29    0.04    1.23   -0.06    0.00    0.00      -1.80    4.22   -0.21
#  39   -1.16   -0.39    0.11    1.03   -0.09    0.00    0.00      -0.49    3.38   -0.28
#  40   -1.29   -0.52    0.54    1.64   -0.06    0.00    0.00       0.31    6.12   -0.23
#  41   -2.51   -0.89    1.62    0.67   -0.12    0.00    0.00      -1.23    1.55   -0.28
#  42   -1.41   -0.47    0.14    0.49   -0.11    0.00    0.00      -1.36    1.23   -0.28
#  43   -2.60   -1.68    2.28    0.31   -0.15    0.00    0.00      -1.84    0.57   -0.28
#  44   -1.44   -0.68    0.29    0.48   -0.14    0.00    0.00      -1.49    0.97   -0.28
#  45   -2.13   -0.84    0.62    1.30   -0.12    0.00    0.00      -1.16    3.10   -0.28
#  46   -1.65   -0.94    0.71    1.01   -0.13    0.00    0.00      -1.00    2.23   -0.28
#  47   -4.89   -0.49    0.36    2.06   -0.09    0.00    0.00      -3.06    6.51   -0.27
#  48   -2.13   -0.24    0.02    1.79   -0.06    0.00    0.00      -0.61    6.08   -0.19
#  49   -4.52   -0.49    0.15    2.00   -0.12    0.00    0.00      -2.98    4.75   -0.28
#  50   -4.23   -1.49    1.94    1.07   -0.14    0.00    0.00      -2.85    2.10   -0.28
#  51   -3.70   -0.51    0.22    0.92   -0.08    0.00    0.00      -3.15    3.04   -0.28
#  52   -2.26   -0.13    0.01    0.71   -0.03    0.00    0.00      -1.71    6.29   -0.24
#  53   -0.02   -0.17    0.05    0.66   -0.02    0.00    0.00       0.49    5.24   -0.18
#  54   -0.40   -0.04    0.00    0.40   -0.01    0.00    0.00      -0.04   10.12   -0.28
#  55   -0.33   -0.21    0.06    0.72   -0.02    0.00    0.00       0.22    5.12   -0.13
#  56   -0.34   -0.07    0.01    0.69   -0.02    0.00    0.00       0.26    9.14   -0.28
#  57   -1.59   -0.05    0.00    0.26   -0.01    0.00    0.00      -1.39    6.04   -0.28
#  58   -3.64   -0.18    0.02    1.76   -0.05    0.00    0.00      -2.09    9.51   -0.28
#  59   -6.39   -0.59    0.44    3.10   -0.08    0.00    0.00      -3.53   10.28   -0.28
#  60   -7.29   -0.04    0.00    2.89    0.15    0.00    0.00      -4.28   11.48    0.59
#  61   -1.21   -0.20    0.01    0.36   -0.06    0.00    0.00      -1.10    1.73   -0.28
#  62   -1.21   -0.35    0.07    0.80   -0.08    0.00    0.00      -0.77    2.69   -0.28
#  63   -0.49   -0.10    0.01    0.63   -0.02    0.00    0.00       0.02    7.02   -0.24
#  64   -3.19   -0.12    0.01    0.61   -0.03    0.00    0.00      -2.72    5.51   -0.24
#  65   -6.47   -0.60    0.75    0.86   -0.03    0.00    0.00      -5.50    3.86   -0.15
#  66   -1.88   -0.13    0.01    1.17   -0.04    0.00    0.00      -0.87    8.27   -0.28
#  67   -3.15   -0.14    0.01    0.66   -0.04    0.00    0.00      -2.67    4.25   -0.28
#  68   -0.27   -0.08    0.00    0.95   -0.02    0.00    0.00       0.57   11.59   -0.26
#  69   -0.55   -0.06    0.00    0.47   -0.02    0.00    0.00      -0.16    7.31   -0.26

@<TRIPOS>MOLECULE
          T529065        90
   69    74     0     0     0



@<TRIPOS>ATOM
      1 C1          0.5213    -5.1604    92.7472 C.3        1          -0.0087
      2 C2         -0.6922    -4.3441    93.1968 C.3        1          -0.1185
      3 C3         -1.7739    -4.3953    92.1135 C.3        1          -0.1666
      4 C4         -2.9511    -3.5127    92.5368 C.3        1           0.0596
      5 O1         -2.4893    -2.1784    92.7566 O.3        1          -0.3690
      6 C5         -1.5108    -2.0626    93.7916 C.3        1           0.0556
      7 C6         -0.2759    -2.8869    93.4187 C.3        1          -0.1490
      8 N1          0.2660    -6.5836    92.9806 N.4        1          -0.3822
      9 H1         -0.7230    -6.7395    92.7202 H          1           0.4157
     10 C7          0.3669    -6.9082    94.4007 C.3        1           0.0342
     11 C8          1.6647    -6.4276    95.0134 C.ar       1          -0.1833
     12 C9          1.6909    -5.3844    95.9119 C.ar       1          -0.0626
     13 C10         2.8976    -4.9907    96.4657 C.ar       1          -0.1053
     14 C11         4.0656    -5.6467    96.1230 C.ar       1          -0.0640
     15 C12         4.0382    -6.6915    95.2174 C.ar       1          -0.1372
     16 C13         2.8350    -7.0708    94.6479 C.ar       1           0.0987
     17 O2          2.7604    -8.0598    93.7166 O.3        1          -0.2979
     18 C14         2.5277    -7.6516    92.3665 C.3        1           0.0990
     19 C15         3.0077    -8.7867    91.4396 C.3        1          -0.1948
     20 C16         4.5075    -9.0022    91.6179 C.3        1          -0.0161
     21 N2          5.2249    -7.7744    91.2475 N.4        1          -0.3817
     22 H2          4.9869    -7.5196    90.3022 H          1           0.4210
     23 C17         6.6709    -8.0077    91.3448 C.3        1           0.0860
     24 C18         7.0240    -8.3903    92.7590 C.2        1          -0.2768
     25 C19         7.3574    -7.5513    93.7553 C.2        1           0.1474
     26 N3          7.6117    -8.2593    94.8963 N.pl3      1          -0.5611
     27 C20         7.4451    -9.6040    94.6599 C.ar       1           0.0332
     28 C21         7.5668   -10.7503    95.4343 C.ar       1           0.1438
     29 N4          7.3341   -11.9352    94.9078 N.ar       1          -0.4562
     30 C22         6.9800   -12.0956    93.6432 C.ar       1           0.0905
     31 C23         6.8355   -11.0263    92.8049 C.ar       1          -0.1572
     32 C24         7.0628    -9.7420    93.3094 C.ar       1          -0.0613
     33 C25         4.8437    -6.6886    92.1587 C.3        1          -0.0160
     34 C26         3.3477    -6.3994    92.0541 C.3        1          -0.1290
     35 C27         1.0536    -7.4240    92.1170 C.3        1          -0.0370
     36 H3          0.6988    -4.9925    91.6850 H          1           0.1383
     37 H4          1.3983    -4.8505    93.3155 H          1           0.1411
     38 H5         -1.0852    -4.7567    94.1262 H          1           0.0982
     39 H6         -1.3643    -4.0293    91.1721 H          1           0.0900
     40 H7         -2.1157    -5.4227    91.9881 H          1           0.0631
     41 H8         -3.7056    -3.5113    91.7501 H          1           0.1058
     42 H9         -3.3858    -3.9032    93.4569 H          1           0.0577
     43 H10        -1.2278    -1.0165    93.9089 H          1           0.1109
     44 H11        -1.9267    -2.4341    94.7282 H          1           0.0593
     45 H12         0.4538    -2.8356    94.2268 H          1           0.0906
     46 H13         0.1641    -2.4904    92.5036 H          1           0.0871
     47 H14        -0.4697    -6.4509    94.9368 H          1           0.1469
     48 H15         0.2976    -7.9930    94.5273 H          1           0.1483
     49 H16         0.7787    -4.8738    96.1839 H          1           0.1449
     50 H17         2.9261    -4.1690    97.1662 H          1           0.1488
     51 H18         5.0035    -5.3430    96.5638 H          1           0.1491
     52 H19         4.9518    -7.2135    94.9722 H          1           0.1425
     53 H20         2.4718    -9.7019    91.6952 H          1           0.1130
     54 H21         2.7922    -8.5166    90.4061 H          1           0.1191
     55 H22         4.7243    -9.2498    92.6562 H          1           0.1415
     56 H23         4.8382    -9.8186    90.9749 H          1           0.1458
     57 H24         6.9552    -8.8140    90.6685 H          1           0.1353
     58 H25         7.2051    -7.0982    91.0704 H          1           0.1403
     59 H26         7.4156    -6.4764    93.6670 H          1           0.1887
     60 H27         7.8715    -7.8712    95.7465 H          1           0.4357
     61 H28         7.8539   -10.6700    96.4724 H          1           0.1665
     62 H29         6.8019   -13.0918    93.2658 H          1           0.1649
     63 H30         6.5467   -11.1699    91.7741 H          1           0.1332
     64 H31         5.0948    -6.9740    93.1788 H          1           0.1388
     65 H32         5.4027    -5.7876    91.8957 H          1           0.1516
     66 H33         3.1147    -6.0522    91.0451 H          1           0.1161
     67 H34         3.1018    -5.6070    92.7660 H          1           0.1342
     68 H35         0.5751    -8.4157    92.0870 H          1           0.1482
     69 H36         0.9599    -7.0297    91.0923 H          1           0.1510
@<TRIPOS>BOND
     1    1    2 1
     2    1    8 1
     3    1   36 1
     4    1   37 1
     5    2    7 1
     6    2    3 1
     7    2   38 1
     8    3    4 1
     9    3   39 1
    10    3   40 1
    11    4    5 1
    12    4   41 1
    13    4   42 1
    14    5    6 1
    15    6    7 1
    16    6   43 1
    17    6   44 1
    18    7   45 1
    19    7   46 1
    20    8    9 1
    21    8   35 1
    22    8   10 1
    23   10   11 1
    24   10   47 1
    25   10   48 1
    26   11   16 ar
    27   11   12 ar
    28   12   13 ar
    29   12   49 1
    30   13   14 ar
    31   13   50 1
    32   14   15 ar
    33   14   51 1
    34   15   16 ar
    35   15   52 1
    36   16   17 1
    37   17   18 1
    38   18   34 1
    39   18   19 1
    40   18   35 1
    41   19   20 1
    42   19   53 1
    43   19   54 1
    44   20   21 1
    45   20   55 1
    46   20   56 1
    47   21   22 1
    48   21   23 1
    49   21   33 1
    50   23   24 1
    51   23   57 1
    52   23   58 1
    53   24   32 1
    54   24   25 2
    55   25   26 1
    56   25   59 1
    57   26   27 1
    58   26   60 1
    59   27   32 ar
    60   27   28 ar
    61   28   29 ar
    62   28   61 1
    63   29   30 ar
    64   30   31 ar
    65   30   62 1
    66   31   32 ar
    67   31   63 1
    68   33   34 1
    69   33   64 1
    70   33   65 1
    71   34   66 1
    72   34   67 1
    73   35   68 1
    74   35   69 1
##########                 Name:              T528500
##########          Protonation:                   25
##########               SMILES:   COc1ccc2c(n1)c(c(cn2)C#N)CC[NH+]3C[C@H]([C@@H](C3)O)C[NH2+]Cc4ccccc4
##########            Long Name:   1,5-naphthyridin-4-yl)ethyl]-4-hydroxy-pyrrolidin-1-ium-3-yl]methyl]ammonium
##########          FlexRecCode: 1
##########               Number:                  293
##########   Ligand Source File: /raidb/db2/rgc/tcams/tcams-0000420.db2.gz
##########           GlobalRank: 72
##########                 Rank:                    1
##########               Setnum:                   86
##########             Matchnum:                 5218
##########                Cloud:                    1
##########        Electrostatic:           -47.241570
##########        Van der Waals:           -35.050823
##########  Ligand Polar Desolv:            15.250632
########## Ligand Apolar Desolv:            -2.253560
##########      Internal Energy:             0.000000
##########      Receptor Energy: 0.0
########## Receptor Desolvation:             0.000000
########## Receptor Hydrophobic:             0.000000
##########         Total Energy: -69.3
##########        Ligand Charge:             2.000000
##########            Arbitrary:    +999.9990
##########     heavy atom count:   31
##########           pose count:    1
##########        Ligand Energy:             0.000000
# num electro vdwattr vdwrepu polsolv apolsol rdesolv rhydroe totalscore fullpol fullapo
#   1   -0.58   -0.28    0.02    0.05    0.00    0.00    0.00      -0.80    0.30    0.03
#   2    2.60   -0.36    0.03   -1.10    0.12    0.00    0.00       1.30   -8.12    0.90
#   3   -3.35   -1.05    0.59    1.48   -0.12    0.00    0.00      -2.45    8.12   -0.66
#   4    1.02   -0.94    0.36   -0.67   -0.10    0.00    0.00      -0.32   -3.23   -0.46
#   5    0.02   -1.14    0.33   -0.31   -0.14    0.00    0.00      -1.25   -1.05   -0.48
#   6   -0.59   -1.31    0.44    0.14   -0.22    0.00    0.00      -1.55    0.45   -0.73
#   7    3.04   -1.15    0.08   -3.36    0.73    0.00    0.00      -0.65   -9.07    1.97
#   8   -1.24   -1.58    0.30    1.09   -0.37    0.00    0.00      -1.81    2.84   -0.96
#   9    0.31   -1.25    0.11   -0.56   -0.15    0.00    0.00      -1.53   -1.50   -0.40
#  10   -3.02   -1.70    0.26    3.52   -0.62    0.00    0.00      -1.57    7.49   -1.33
#  11    5.30   -2.76    0.95   -5.11    0.37    0.00    0.00      -1.24   -9.71    0.71
#  12    0.03   -1.15    0.17    0.82   -0.11    0.00    0.00      -0.24    2.60   -0.36
#  13    2.19   -0.65    0.06   -1.39   -0.06    0.00    0.00       0.15   -4.47   -0.20
#  14    0.02   -0.48    0.03    0.24   -0.08    0.00    0.00      -0.26    1.02   -0.35
#  15   10.61   -0.69    0.06   -4.82    0.11    0.00    0.00       5.28  -18.03    0.42
#  16  -17.20   -0.03    0.00    4.16    0.11    0.00    0.00     -12.95   20.69    0.56
#  17    1.20   -0.82    0.06   -1.09   -0.15    0.00    0.00      -0.80   -2.79   -0.38
#  18   -2.23   -1.36    0.31    1.53   -0.07    0.00    0.00      -1.82    3.50   -0.15
#  19   20.14   -4.78    4.24  -14.43    0.94    0.00    0.00       6.11  -26.23    1.71
#  20    3.23   -0.81    0.13   -1.93   -0.06    0.00    0.00       0.56   -6.12   -0.19
#  21    0.05   -0.62    0.04    0.05   -0.11    0.00    0.00      -0.58    0.15   -0.34
#  22   10.12   -1.42    0.28  -10.85    0.31    0.00    0.00      -1.56  -25.66    0.73
#  23   -9.63   -0.04    0.00    8.95    0.18    0.00    0.00      -0.54   23.42    0.48
#  24   -5.54   -0.05    0.00    7.32    0.18    0.00    0.00       1.92   22.75    0.57
#  25   -1.13   -0.92    0.09    1.75   -0.20    0.00    0.00      -0.41    3.75   -0.42
#  26    4.23   -1.85    0.18   -2.30   -0.22    0.00    0.00       0.04   -3.81   -0.37
#  27    2.23   -2.38    0.40   -1.82   -0.30    0.00    0.00      -1.87   -2.69   -0.45
#  28    2.66   -4.28    2.31   -2.96   -0.32    0.00    0.00      -2.59   -4.33   -0.47
#  29    1.73   -6.02    3.99   -2.66   -0.33    0.00    0.00      -3.29   -3.77   -0.47
#  30    2.55   -6.13    3.76   -2.94   -0.32    0.00    0.00      -3.07   -4.32   -0.47
#  31    2.09   -3.38    0.98   -1.78   -0.27    0.00    0.00      -2.35   -2.98   -0.45
#  32   -0.15   -0.39    0.01    0.04   -0.10    0.00    0.00      -0.59    0.16   -0.43
#  33   -1.31   -1.54    0.77    0.77   -0.20    0.00    0.00      -1.50    2.85   -0.73
#  34    6.77   -1.42    0.74   -2.95    0.60    0.00    0.00       3.73  -12.52    2.53
#  35   -0.65   -0.05    0.00    0.23   -0.01    0.00    0.00      -0.48    5.09   -0.28
#  36   -1.55   -0.06    0.00    0.17   -0.02    0.00    0.00      -1.45    3.09   -0.28
#  37   -1.30   -0.19    0.03    0.46   -0.05    0.00    0.00      -1.05    2.40   -0.28
#  38   -0.94   -0.11    0.01    0.31   -0.03    0.00    0.00      -0.76    3.14   -0.28
#  39   -1.83   -0.23    0.02    0.54   -0.06    0.00    0.00      -1.56    2.36   -0.28
#  40   -1.44   -0.66    0.65    1.08   -0.09    0.00    0.00      -0.45    3.42   -0.28
#  41   -2.90   -0.21    0.01    1.45   -0.06    0.00    0.00      -1.70    5.98   -0.23
#  42   -2.96   -0.30    0.07    0.90   -0.06    0.00    0.00      -2.34    3.80   -0.24
#  43   -1.40   -0.14    0.01    0.64   -0.03    0.00    0.00      -0.91    5.55   -0.28
#  44   -1.40   -0.19    0.03    1.30   -0.04    0.00    0.00      -0.30    7.97   -0.27
#  45   -3.47   -0.21    0.01    1.97   -0.05    0.00    0.00      -1.76    9.66   -0.26
#  46   -4.87   -0.37    0.06    2.12   -0.09    0.00    0.00      -3.16    6.15   -0.27
#  47   -2.81   -0.62    0.35    3.14   -0.09    0.00    0.00      -0.03    8.77   -0.24
#  48  -19.20   -0.08    0.00    9.33    0.65    0.00    0.00      -9.29   17.43    1.22
#  49   -3.39   -0.59    0.47    1.82   -0.08    0.00    0.00      -1.76    6.15   -0.27
#  50   -2.35   -0.12    0.00    1.22   -0.03    0.00    0.00      -1.27    9.83   -0.28
#  51   -3.63   -0.19    0.01    2.40   -0.06    0.00    0.00      -1.47   11.75   -0.28
#  52   -3.18   -0.30    0.10    2.02   -0.07    0.00    0.00      -1.43    8.42   -0.28
#  53   -3.76   -0.35    0.05    3.46   -0.10    0.00    0.00      -0.70    9.74   -0.28
#  54   -3.12   -0.56    0.19    4.17   -0.15    0.00    0.00       0.52    7.70   -0.28
#  55   -3.28   -1.38    1.40    1.27   -0.18    0.00    0.00      -2.17    1.93   -0.28
#  56   -3.20   -1.96    1.99    0.40   -0.20    0.00    0.00      -2.97    0.55   -0.28
#  57   -3.10   -2.49    3.94    1.04   -0.20    0.00    0.00      -0.81    1.45   -0.28
#  58   -2.97   -0.91    0.59    3.29   -0.14    0.00    0.00      -0.14    6.38   -0.28
#  59   -2.76   -0.09    0.00    0.70   -0.03    0.00    0.00      -2.18    7.37   -0.28
#  60   -1.98   -0.10    0.00    0.95   -0.02    0.00    0.00      -1.14   10.44   -0.27

@<TRIPOS>MOLECULE
          T528500        25
   60    63     0     0     0



@<TRIPOS>ATOM
      1 C1          7.5497    -8.3097    90.5492 C.3        1           0.0397
      2 O1          8.0943    -9.5715    90.9408 O.3        1          -0.2895
      3 C2          8.0487    -9.8787    92.2605 C.ar       1           0.3755
      4 C3          8.5747   -11.1017    92.6983 C.ar       1          -0.1463
      5 C4          8.5362   -11.4247    94.0214 C.ar       1          -0.0021
      6 C5          7.9595   -10.5029    94.9205 C.ar       1           0.0771
      7 N1          7.8970   -10.7701    96.2281 N.ar       1          -0.4233
      8 C6          7.3666    -9.9284    97.0778 C.ar       1           0.1610
      9 C7          6.8342    -8.6975    96.6541 C.ar       1          -0.0301
     10 C8          6.2593    -7.7945    97.6053 C.1        1           0.2362
     11 N2          5.8033    -7.0781    98.3598 N.1        1          -0.3700
     12 C9          6.8708    -8.3640    95.3055 C.ar       1          -0.0025
     13 C10         6.3105    -7.0539    94.8151 C.3        1          -0.1004
     14 C11         4.8329    -7.2317    94.4605 C.3        1          -0.0015
     15 N3          4.2868    -5.9546    93.9825 N.4        1          -0.3923
     16 H1          4.9564    -5.4829    93.3933 H          1           0.4378
     17 C12         3.9046    -5.0911    95.1294 C.3        1          -0.0423
     18 C13         2.8769    -4.0991    94.5439 C.3        1           0.0761
     19 O2          3.5240    -2.8856    94.1556 O.3        1          -0.5476
     20 C14         2.2900    -4.8125    93.3084 C.3        1          -0.1400
     21 C15         0.7832    -5.0164    93.4784 C.3        1          -0.0027
     22 N4          0.0808    -3.7662    93.1595 N.4        1          -0.5105
     23 H2          0.3938    -3.0364    93.7820 H          1           0.4263
     24 H3          0.2791    -3.5029    92.2059 H          1           0.4346
     25 C16        -1.3658    -3.9620    93.3227 C.3        1           0.0482
     26 C17        -2.0864    -2.6796    92.9955 C.ar       1          -0.1785
     27 C18        -3.2801    -2.3777    93.6241 C.ar       1          -0.0933
     28 C19        -3.9411    -1.2013    93.3241 C.ar       1          -0.1130
     29 C20        -3.4079    -0.3265    92.3952 C.ar       1          -0.0746
     30 C21        -2.2141    -0.6278    91.7679 C.ar       1          -0.1118
     31 C22        -1.5510    -1.8023    92.0711 C.ar       1          -0.0909
     32 C23         3.0141    -6.1758    93.2487 C.3        1           0.0078
     33 C24         7.4465    -9.2851    94.4116 C.ar       1           0.1274
     34 N5          7.5169    -9.0202    93.1027 N.ar       1          -0.5525
     35 H4          7.6496    -8.1899    89.4704 H          1           0.0505
     36 H5          6.4954    -8.2681    90.8233 H          1           0.1052
     37 H6          8.0885    -7.5086    91.0553 H          1           0.0622
     38 H7          9.0098   -11.7881    91.9871 H          1           0.1659
     39 H8          8.9373   -12.3636    94.3734 H          1           0.1715
     40 H9          7.3365   -10.1843    98.1266 H          1           0.1836
     41 H10         6.4083    -6.3012    95.5975 H          1           0.1172
     42 H11         6.8603    -6.7319    93.9306 H          1           0.1009
     43 H12         4.7351    -7.9844    93.6782 H          1           0.1372
     44 H13         4.2832    -7.5537    95.3451 H          1           0.1411
     45 H14         3.4492    -5.6881    95.9196 H          1           0.1503
     46 H15         4.7751    -4.5565    95.5094 H          1           0.1502
     47 H16         2.0924    -3.8927    95.2720 H          1           0.1059
     48 H17         4.2099    -3.0029    93.4844 H          1           0.4133
     49 H18         2.4939    -4.2362    92.4061 H          1           0.1461
     50 H19         0.4451    -5.8048    92.8061 H          1           0.1551
     51 H20         0.5690    -5.3008    94.5087 H          1           0.1447
     52 H21        -1.7040    -4.7505    92.6504 H          1           0.1431
     53 H22        -1.5801    -4.2465    94.3530 H          1           0.1407
     54 H23        -3.6965    -3.0612    94.3493 H          1           0.1298
     55 H24        -4.8741    -0.9658    93.8145 H          1           0.1389
     56 H25        -3.9250     0.5922    92.1609 H          1           0.1400
     57 H26        -1.7980     0.0555    91.0424 H          1           0.1397
     58 H27        -0.6162    -2.0360    91.5834 H          1           0.1320
     59 H28         3.2153    -6.4567    92.2149 H          1           0.1556
     60 H29         2.4188    -6.9434    93.7430 H          1           0.1473
@<TRIPOS>BOND
     1    1    2 1
     2    1   35 1
     3    1   36 1
     4    1   37 1
     5    2    3 1
     6    3   34 ar
     7    3    4 ar
     8    4    5 ar
     9    4   38 1
    10    5    6 ar
    11    5   39 1
    12    6   33 ar
    13    6    7 ar
    14    7    8 ar
    15    8    9 ar
    16    8   40 1
    17    9   10 1
    18    9   12 ar
    19   10   11 3
    20   12   13 1
    21   12   33 ar
    22   13   14 1
    23   13   41 1
    24   13   42 1
    25   14   15 1
    26   14   43 1
    27   14   44 1
    28   15   16 1
    29   15   32 1
    30   15   17 1
    31   17   18 1
    32   17   45 1
    33   17   46 1
    34   18   19 1
    35   18   20 1
    36   18   47 1
    37   19   48 1
    38   20   21 1
    39   20   32 1
    40   20   49 1
    41   21   22 1
    42   21   50 1
    43   21   51 1
    44   22   23 1
    45   22   24 1
    46   22   25 1
    47   25   26 1
    48   25   52 1
    49   25   53 1
    50   26   31 ar
    51   26   27 ar
    52   27   28 ar
    53   27   54 1
    54   28   29 ar
    55   28   55 1
    56   29   30 ar
    57   29   56 1
    58   30   31 ar
    59   30   57 1
    60   31   58 1
    61   32   59 1
    62   32   60 1
    63   33   34 ar
##########                 Name:              T531841
##########          Protonation:                   92
##########               SMILES:   Cc1cc2cc(ccc2[nH]c1=[NH2+])C[NH2+]CCc3ccccc3Br
##########            Long Name:   iumylidene-3-methyl-1H-quinolin-6-yl)methyl-[2-(2-bromophenyl)ethyl]ammonium
##########          FlexRecCode: 1
##########               Number:                  294
##########   Ligand Source File: /raidb/db2/rgc/tcams/tcams-0000873.db2.gz
##########           GlobalRank: 72
##########                 Rank:                    1
##########               Setnum:                   10
##########             Matchnum:                 3791
##########                Cloud:                    1
##########        Electrostatic:           -57.891880
##########        Van der Waals:           -19.780075
##########  Ligand Polar Desolv:            11.968105
########## Ligand Apolar Desolv:            -3.596129
##########      Internal Energy:             0.000000
##########      Receptor Energy: 0.0
########## Receptor Desolvation:             0.000000
########## Receptor Hydrophobic:             0.000000
##########         Total Energy: -69.3
##########        Ligand Charge:             2.000000
##########            Arbitrary:    +999.9990
##########     heavy atom count:   23
##########           pose count:    1
##########        Ligand Energy:             0.000000
# num electro vdwattr vdwrepu polsolv apolsol rdesolv rhydroe totalscore fullpol fullapo
#   1    4.81   -2.42    2.34   -1.83   -0.09    0.00    0.00       2.81   -3.92   -0.19
#   2    4.43   -1.15    0.11   -2.45   -0.16    0.00    0.00       0.78   -6.57   -0.42
#   3   -0.90   -1.39    0.24    0.32   -0.16    0.00    0.00      -1.87    0.92   -0.44
#   4    2.91   -0.97    0.14   -1.39   -0.10    0.00    0.00       0.59   -5.56   -0.40
#   5    0.66   -1.67    0.65   -0.28   -0.12    0.00    0.00      -0.76   -0.99   -0.44
#   6    4.07   -0.82    0.15   -1.12   -0.08    0.00    0.00       2.20   -5.40   -0.37
#   7   -0.99   -0.50    0.07    0.53   -0.09    0.00    0.00      -0.97    2.53   -0.42
#   8   18.85   -1.61    1.49   -5.86    0.19    0.00    0.00      13.06  -22.11    0.73
#   9  -13.83   -0.02    0.00    3.54    0.09    0.00    0.00     -10.21   21.75    0.57
#  10  -26.15   -0.19    0.10    7.00    0.18    0.00    0.00     -19.07   22.72    0.57
#  11    0.28   -0.59    0.05    0.23   -0.11    0.00    0.00      -0.13    0.86   -0.40
#  12    3.48   -0.86    0.07   -1.73   -0.08    0.00    0.00       0.88   -4.35   -0.21
#  13    2.20   -1.20    0.12   -0.35   -0.13    0.00    0.00       0.64   -0.95   -0.36
#  14    3.18   -1.70    0.31   -1.12   -0.20    0.00    0.00       0.48   -2.53   -0.45
#  15    2.19   -2.04    0.57   -1.21   -0.21    0.00    0.00      -0.70   -2.74   -0.47
#  16    1.52   -1.42    0.18   -1.23   -0.20    0.00    0.00      -1.15   -2.85   -0.47
#  17    1.08   -1.54    0.20   -1.09   -0.20    0.00    0.00      -1.55   -2.55   -0.46
#  18    1.50   -1.24    0.11   -0.95   -0.11    0.00    0.00      -0.68   -2.49   -0.30
#  19    0.74   -4.35    1.14   -0.37   -0.48    0.00    0.00      -3.32   -0.79   -1.02
#  20    0.56   -0.42    0.02   -0.23   -0.07    0.00    0.00      -0.15   -1.42   -0.45
#  21    1.77   -0.37    0.02   -0.96   -0.07    0.00    0.00       0.39   -6.34   -0.46
#  22   -3.13   -0.44    0.02    0.90   -0.11    0.00    0.00      -2.76    5.44   -0.69
#  23    7.11   -0.34    0.01   -2.89    0.14    0.00    0.00       4.04  -21.60    1.04
#  24   -9.25   -0.64    0.03    4.99   -0.53    0.00    0.00      -5.40   19.52   -2.08
#  25    8.67   -0.79    0.07   -7.02    0.24    0.00    0.00       1.16  -24.94    0.85
#  26   -9.64   -0.03    0.00    4.31    0.14    0.00    0.00      -5.21   16.68    0.54
#  27   -2.02   -0.01    0.00    1.26    0.05    0.00    0.00      -0.72   16.79    0.60
#  28   -3.66   -0.56    0.18    1.27   -0.12    0.00    0.00      -2.88    2.92   -0.28
#  29   -4.95   -1.72    3.86    1.01   -0.13    0.00    0.00      -1.94    2.15   -0.28
#  30   -3.32   -1.06    1.96    0.94   -0.11    0.00    0.00      -1.60    2.31   -0.28
#  31   -5.98   -0.55    0.33    2.17   -0.09    0.00    0.00      -4.11    6.73   -0.28
#  32   -6.31   -0.71    0.51    2.64   -0.09    0.00    0.00      -3.97    8.29   -0.28
#  33   -3.32   -0.16    0.01    1.40   -0.05    0.00    0.00      -2.12    7.96   -0.28
#  34   -2.03   -0.07    0.00    0.44   -0.02    0.00    0.00      -1.67    7.45   -0.28
#  35   -3.80   -0.22    0.02    1.54   -0.06    0.00    0.00      -2.52    7.21   -0.28
#  36   -2.41   -0.10    0.00    0.38   -0.02    0.00    0.00      -2.14    4.59   -0.27
#  37   -4.22   -0.43    0.08    1.55   -0.10    0.00    0.00      -3.12    3.71   -0.24
#  38   -2.88   -0.26    0.02    1.58   -0.07    0.00    0.00      -1.61    6.25   -0.28
#  39   -6.19   -0.69    0.71    2.67   -0.13    0.00    0.00      -3.62    5.96   -0.28
#  40   -3.43   -1.08    1.25    1.11   -0.13    0.00    0.00      -2.28    2.41   -0.28
#  41   -2.19   -0.26    0.02    0.38   -0.08    0.00    0.00      -2.13    1.33   -0.28
#  42   -1.22   -0.62    0.35    0.56   -0.11    0.00    0.00      -1.05    1.40   -0.28
#  43   -1.87   -0.06    0.00    0.42   -0.02    0.00    0.00      -1.53    7.65   -0.28
#  44   -1.48   -0.06    0.00    0.27   -0.02    0.00    0.00      -1.28    4.90   -0.28
#  45   -2.73    0.00    0.00    0.63    0.02    0.00    0.00      -2.08   16.27    0.59

@<TRIPOS>MOLECULE
          T531841        92
   45    47     0     0     0



@<TRIPOS>ATOM
      1 C1          9.7563    -4.3234    86.3894 C.3        1          -0.1248
      2 C2          9.2288    -5.3008    87.4080 C.2        1          -0.1656
      3 C3          7.9811    -5.1666    87.9209 C.2        1           0.0321
      4 C4          7.5145    -6.1474    88.9075 C.ar       1          -0.1189
      5 C5          6.3540    -5.9192    89.6531 C.ar       1          -0.0215
      6 C6          5.9387    -6.8575    90.5713 C.ar       1          -0.1652
      7 C7          4.6876    -6.6136    91.3753 C.3        1           0.0410
      8 N1          5.0330    -5.9081    92.6166 N.4        1          -0.5090
      9 H1          5.6749    -6.4700    93.1554 H          1           0.4280
     10 H2          5.4660    -5.0248    92.3921 H          1           0.4291
     11 C8          3.8135    -5.6706    93.4005 C.3        1          -0.0101
     12 C9          4.1733    -4.9357    94.6933 C.3        1          -0.1097
     13 C10         5.1321    -5.7749    95.4980 C.ar       1          -0.0838
     14 C11         6.4951    -5.6325    95.3170 C.ar       1          -0.1020
     15 C12         7.3747    -6.4017    96.0553 C.ar       1          -0.0950
     16 C13         6.8917    -7.3139    96.9752 C.ar       1          -0.0940
     17 C14         5.5292    -7.4570    97.1568 C.ar       1          -0.0828
     18 C15         4.6485    -6.6835    96.4218 C.ar       1          -0.0873
     19 Br1         2.7843    -6.8737    96.6750 Br         1          -0.0458
     20 C16         6.6624    -8.0258    90.7619 C.ar       1          -0.0338
     21 C17         7.8101    -8.2666    90.0349 C.ar       1          -0.1287
     22 C18         8.2451    -7.3334    89.1049 C.ar       1           0.1906
     23 N2          9.3960    -7.5466    88.3584 N.pl3      1          -0.6240
     24 C19        10.0517    -6.4301    87.8683 C.cat      1           0.5667
     25 N3         11.3617    -6.3806    87.8212 N.pl3      1          -0.7071
     26 H3         11.8051    -5.5890    87.4780 H          1           0.4554
     27 H4         11.8870    -7.1356    88.1294 H          1           0.4392
     28 H5          8.9982    -3.5673    86.1848 H          1           0.0980
     29 H6         10.6537    -3.8421    86.7783 H          1           0.1055
     30 H7          9.9984    -4.8536    85.4684 H          1           0.0825
     31 H8          7.3428    -4.3529    87.6097 H          1           0.1787
     32 H9          5.7864    -5.0116    89.5098 H          1           0.1588
     33 H10         3.9942    -6.0065    90.7933 H          1           0.1490
     34 H11         4.2198    -7.5678    91.6178 H          1           0.1476
     35 H12         3.1201    -5.0635    92.8185 H          1           0.1411
     36 H13         3.3458    -6.6246    93.6430 H          1           0.1362
     37 H14         4.6410    -3.9814    94.4507 H          1           0.1025
     38 H15         3.2684    -4.7593    95.2749 H          1           0.1037
     39 H16         6.8728    -4.9203    94.5982 H          1           0.1355
     40 H17         8.4395    -6.2905    95.9133 H          1           0.1397
     41 H18         7.5792    -7.9151    97.5516 H          1           0.1426
     42 H19         5.1520    -8.1695    97.8754 H          1           0.1419
     43 H20         6.3245    -8.7527    91.4857 H          1           0.1564
     44 H21         8.3678    -9.1785    90.1890 H          1           0.1578
     45 H22         9.7261    -8.4418    88.1837 H          1           0.4495
@<TRIPOS>BOND
     1    1    2 1
     2    1   28 1
     3    1   29 1
     4    1   30 1
     5    2   24 1
     6    2    3 2
     7    3    4 1
     8    3   31 1
     9    4   22 ar
    10    4    5 ar
    11    5    6 ar
    12    5   32 1
    13    6    7 1
    14    6   20 ar
    15    7    8 1
    16    7   33 1
    17    7   34 1
    18    8    9 1
    19    8   10 1
    20    8   11 1
    21   11   12 1
    22   11   35 1
    23   11   36 1
    24   12   13 1
    25   12   37 1
    26   12   38 1
    27   13   18 ar
    28   13   14 ar
    29   14   15 ar
    30   14   39 1
    31   15   16 ar
    32   15   40 1
    33   16   17 ar
    34   16   41 1
    35   17   18 ar
    36   17   42 1
    37   18   19 1
    38   20   21 ar
    39   20   43 1
    40   21   22 ar
    41   21   44 1
    42   22   23 1
    43   23   24 1
    44   23   45 1
    45   24   25 2
    46   25   26 1
    47   25   27 1
##########                 Name:              T537278
##########          Protonation:                   37
##########               SMILES:   c1ccc(cc1)[C@@]2(CC[NH+](C2)Cc3cccc(c3)c4c[nH]c5c4c[nH+]c(n5)NC6CCCC6)O
##########            Long Name:   olo[2,3-d]pyrimidin-3-ium-5-yl]phenyl]methyl]-3-phenyl-pyrrolidin-1-ium-3-ol
##########          FlexRecCode: 1
##########               Number:                  179
##########   Ligand Source File: /raidb/db2/rgc/tcams/tcams-0001773.db2.gz
##########           GlobalRank: 73
##########                 Rank:                    1
##########               Setnum:                  319
##########             Matchnum:                 4219
##########                Cloud:                    1
##########        Electrostatic:           -44.979698
##########        Van der Waals:           -25.791323
##########  Ligand Polar Desolv:             5.279404
########## Ligand Apolar Desolv:            -3.686134
##########      Internal Energy:             0.000000
##########      Receptor Energy: 0.0
########## Receptor Desolvation:             0.000000
########## Receptor Hydrophobic:             0.000000
##########         Total Energy: -69.18
##########        Ligand Charge:             2.000000
##########            Arbitrary:    +999.9990
##########     heavy atom count:   34
##########           pose count:    1
##########        Ligand Energy:             0.000000
# num electro vdwattr vdwrepu polsolv apolsol rdesolv rhydroe totalscore fullpol fullapo
#   1    2.67   -1.12    0.23   -4.99    0.48    0.00    0.00      -2.73  -16.54    1.58
#   2   -1.04   -0.41    0.04    1.00   -0.01    0.00    0.00      -0.43    5.06   -0.07
#   3    2.17   -0.50    0.08   -1.25   -0.05    0.00    0.00       0.44   -5.72   -0.25
#   4    0.21   -0.37    0.02    0.06   -0.09    0.00    0.00      -0.18    0.27   -0.45
#   5    7.04   -0.41    0.02   -2.61    0.08    0.00    0.00       4.12  -14.61    0.45
#   6  -11.66   -0.02    0.00    3.69    0.10    0.00    0.00      -7.88   19.68    0.56
#   7   -0.57   -0.22    0.01    0.27   -0.05    0.00    0.00      -0.57    1.89   -0.33
#   8    2.26   -0.38    0.02   -0.70   -0.05    0.00    0.00       1.14   -4.51   -0.34
#   9    0.62   -0.35    0.02   -0.43   -0.05    0.00    0.00      -0.19   -3.39   -0.40
#  10    0.28   -1.04    0.47   -0.87   -0.08    0.00    0.00      -1.24   -4.97   -0.47
#  11    0.60   -0.74    0.13   -0.61   -0.08    0.00    0.00      -0.70   -3.32   -0.45
#  12    0.45   -0.65    0.07   -0.23   -0.08    0.00    0.00      -0.45   -1.14   -0.40
#  13    2.08   -0.93    0.24   -0.57   -0.10    0.00    0.00       0.72   -2.62   -0.44
#  14    2.99   -1.18    0.35   -0.71   -0.10    0.00    0.00       1.35   -2.75   -0.39
#  15   -4.84   -2.98    4.66    1.22   -0.40    0.00    0.00      -2.34    3.00   -0.99
#  16   22.04   -2.47    0.56   -7.97    0.57    0.00    0.00      12.74  -16.24    1.17
#  17  -13.51   -2.02    0.50    4.24   -1.01    0.00    0.00     -11.80    9.81   -2.33
#  18   13.97   -3.53    1.84   -7.01    0.94    0.00    0.00       6.21  -15.42    2.07
#  19  -13.83   -2.03    0.54    7.22   -1.95    0.00    0.00     -10.05   17.69   -4.78
#  20   15.36   -2.74    0.98   -9.12    0.73    0.00    0.00       5.22  -18.61    1.50
#  21   -2.88   -1.09    0.11    2.03   -0.15    0.00    0.00      -1.98    4.06   -0.30
#  22    3.46   -1.12    0.19   -1.70   -0.13    0.00    0.00       0.70   -3.43   -0.27
#  23    2.97   -1.56    0.37   -1.75   -0.18    0.00    0.00      -0.14   -2.87   -0.29
#  24    3.08   -1.92    0.48   -1.94   -0.20    0.00    0.00      -0.51   -2.81   -0.29
#  25    3.18   -1.86    0.40   -1.84   -0.17    0.00    0.00      -0.29   -2.99   -0.28
#  26    9.52   -1.03    0.12   -5.32    0.30    0.00    0.00       3.59  -17.40    0.97
#  27   -7.00   -0.01    0.00    2.73    0.07    0.00    0.00      -4.22   17.16    0.44
#  28   -4.41   -0.74    0.06    2.55   -0.23    0.00    0.00      -2.76   10.85   -0.98
#  29    5.24   -0.99    0.10   -2.07   -0.13    0.00    0.00       2.15   -7.09   -0.44
#  30   -0.06   -0.20    0.00    0.12   -0.05    0.00    0.00      -0.18    0.95   -0.42
#  31    0.45   -1.05    0.50   -0.45   -0.06    0.00    0.00      -0.63   -2.45   -0.35
#  32    0.31   -1.22    0.37   -0.74   -0.12    0.00    0.00      -1.39   -2.66   -0.44
#  33    0.27   -1.19    0.29   -0.87   -0.15    0.00    0.00      -1.65   -2.81   -0.47
#  34    0.20   -0.95    0.23   -0.66   -0.11    0.00    0.00      -1.30   -2.80   -0.47
#  35    0.23   -0.82    0.34   -0.48   -0.08    0.00    0.00      -0.80   -2.98   -0.47
#  36    0.29   -0.91    0.56   -0.33   -0.06    0.00    0.00      -0.45   -2.31   -0.40
#  37   -6.43   -0.04    0.00    2.87    0.28    0.00    0.00      -3.32   11.47    1.10
#  38   -0.87   -0.15    0.04    0.47   -0.03    0.00    0.00      -0.54    3.88   -0.22
#  39   -2.39   -0.26    0.05    0.54   -0.06    0.00    0.00      -2.11    2.68   -0.28
#  40   -1.85   -0.07    0.00    0.40   -0.01    0.00    0.00      -1.53    6.52   -0.17
#  41   -3.60   -0.21    0.03    1.13   -0.06    0.00    0.00      -2.71    5.59   -0.28
#  42   -1.22   -0.03    0.00    0.26   -0.01    0.00    0.00      -1.00    8.09   -0.28
#  43   -2.19   -0.10    0.01    0.84   -0.03    0.00    0.00      -1.48    7.20   -0.27
#  44   -0.59   -0.05    0.00    0.26   -0.01    0.00    0.00      -0.39    5.80   -0.24
#  45    0.55   -1.09    3.76    0.69   -0.06    0.00    0.00       3.84    3.19   -0.28
#  46   -0.18   -0.26    0.11    0.64   -0.04    0.00    0.00       0.26    4.08   -0.28
#  47   -5.70   -0.65    0.88    1.72   -0.07    0.00    0.00      -3.81    7.23   -0.28
#  48  -10.06   -0.87    2.13    3.02   -0.09    0.00    0.00      -5.88    9.41   -0.28
#  49  -18.04   -0.05    0.00    6.91    0.32    0.00    0.00     -10.86   12.92    0.59
#  50  -10.66   -0.10    0.01    5.06    0.27    0.00    0.00      -5.42   10.86    0.57
#  51   -2.65   -0.37    0.08    1.71   -0.07    0.00    0.00      -1.29    5.19   -0.22
#  52   -1.72   -0.39    0.08    0.49   -0.10    0.00    0.00      -1.64    1.41   -0.28
#  53   -1.65   -0.42    0.20    1.06   -0.08    0.00    0.00      -0.88    3.74   -0.28
#  54   -1.97   -1.02    1.23    0.28   -0.14    0.00    0.00      -1.62    0.56   -0.28
#  55   -1.88   -0.60    0.31    0.83   -0.13    0.00    0.00      -1.48    1.73   -0.28
#  56   -1.79   -0.77    0.29    0.37   -0.15    0.00    0.00      -2.05    0.69   -0.28
#  57   -1.98   -0.89    0.44    0.32   -0.17    0.00    0.00      -2.28    0.53   -0.28
#  58   -2.31   -0.74    0.36    1.23   -0.17    0.00    0.00      -1.63    2.05   -0.28
#  59   -2.09   -1.22    1.24    0.94   -0.16    0.00    0.00      -1.28    1.64   -0.27
#  60   -2.39   -0.08    0.00    0.89   -0.02    0.00    0.00      -1.60   11.96   -0.28
#  61   -1.12   -0.06    0.00    0.37   -0.02    0.00    0.00      -0.83    6.15   -0.28
#  62   -0.89   -0.03    0.00    0.24   -0.01    0.00    0.00      -0.69    7.19   -0.23
#  63   -0.43   -0.21    0.02    0.67   -0.05    0.00    0.00       0.00    3.13   -0.23
#  64   -0.31   -0.23    0.02    0.35   -0.08    0.00    0.00      -0.26    1.19   -0.28
#  65   -0.21   -0.15    0.01    0.17   -0.05    0.00    0.00      -0.23    1.00   -0.28
#  66   -0.20   -0.08    0.01    0.19   -0.02    0.00    0.00      -0.11    2.46   -0.28
#  67   -0.28   -0.07    0.01    0.49   -0.02    0.00    0.00       0.13    6.55   -0.25

@<TRIPOS>MOLECULE
          T537278        37
   67    72     0     0     0



@<TRIPOS>ATOM
      1 O1          6.0948    -5.2971    86.6558 O.3        1          -0.5464
      2 C1          6.5311    -6.6578    86.6604 C.3        1           0.1717
      3 C2          8.0782    -6.7452    86.7345 C.3        1          -0.1656
      4 C3          8.3637    -6.5853    88.2426 C.3        1          -0.0111
      5 N1          7.1335    -6.9629    88.9624 N.4        1          -0.3862
      6 H1          6.7951    -6.1744    89.4934 H          1           0.4286
      7 C4          7.4149    -8.0854    89.8673 C.3        1           0.0398
      8 C5          6.3480    -8.1543    90.9294 C.ar       1          -0.1467
      9 C6          5.7890    -9.3738    91.2683 C.ar       1          -0.0854
     10 C7          4.8097    -9.4449    92.2425 C.ar       1          -0.1027
     11 C8          4.3845    -8.2983    92.8825 C.ar       1          -0.0776
     12 C9          4.9441    -7.0669    92.5451 C.ar       1          -0.0203
     13 C10         5.9348    -7.0020    91.5659 C.ar       1          -0.0783
     14 C11         4.4914    -5.8318    93.2283 C.2        1          -0.0942
     15 C12         5.2552    -4.9822    93.9569 C.2        1           0.1101
     16 N2          4.4825    -3.9558    94.4293 N.pl3      1          -0.5476
     17 C13         3.1856    -4.1094    94.0188 C.ar       1           0.4284
     18 N3          2.0689    -3.4103    94.1988 N.ar       1          -0.5214
     19 C14         0.9298    -3.8168    93.6642 C.ar       1           0.6316
     20 N4         -0.2126    -3.0619    93.8737 N.pl3      1          -0.6632
     21 C15        -1.5244    -3.7132    93.9095 C.3        1           0.1180
     22 C16        -2.1783    -3.6680    92.5226 C.3        1          -0.1474
     23 C17        -3.4746    -2.8669    92.7095 C.3        1          -0.1248
     24 C18        -3.0982    -1.9249    93.8632 C.3        1          -0.1292
     25 C19        -2.4764    -2.9408    94.8329 C.3        1          -0.1296
     26 N5          0.8413    -4.9219    92.9337 N.ar       1          -0.5459
     27 H2         -0.0163    -5.1804    92.5614 H          1           0.4482
     28 C20         1.9037    -5.6758    92.7052 C.ar       1           0.2620
     29 C21         3.1267    -5.2849    93.2432 C.ar       1          -0.2019
     30 C22         6.1143    -7.3696    87.9717 C.3        1           0.0060
     31 C23         6.0049    -7.3945    85.4556 C.ar       1          -0.1381
     32 C24         5.2132    -6.7355    84.5339 C.ar       1          -0.0992
     33 C25         4.7307    -7.4111    83.4286 C.ar       1          -0.1087
     34 C26         5.0400    -8.7463    83.2455 C.ar       1          -0.0970
     35 C27         5.8329    -9.4046    84.1663 C.ar       1          -0.1115
     36 C28         6.3190    -8.7278    85.2692 C.ar       1          -0.1126
     37 H3          6.4550    -4.7661    87.3793 H          1           0.4057
     38 H4          8.4270    -7.7139    86.3768 H          1           0.1115
     39 H5          8.5375    -5.9355    86.1675 H          1           0.1198
     40 H6          9.1820    -7.2426    88.5369 H          1           0.1326
     41 H7          8.6195    -5.5491    88.4638 H          1           0.1339
     42 H8          7.4236    -9.0160    89.3000 H          1           0.1400
     43 H9          8.3871    -7.9377    90.3379 H          1           0.1398
     44 H10         6.1184   -10.2735    90.7700 H          1           0.1370
     45 H11         4.3767   -10.3994    92.5027 H          1           0.1436
     46 H12         3.6196    -8.3549    93.6427 H          1           0.1345
     47 H13         6.3748    -6.0514    91.3033 H          1           0.1372
     48 H14         6.3136    -5.0976    94.1379 H          1           0.2066
     49 H15         4.8075    -3.2241    94.9769 H          1           0.4473
     50 H16        -0.1441    -2.1022    93.9964 H          1           0.4426
     51 H17        -1.4237    -4.7442    94.2485 H          1           0.0919
     52 H18        -1.5224    -3.1643    91.8125 H          1           0.0857
     53 H19        -2.4047    -4.6774    92.1793 H          1           0.0744
     54 H20        -3.7176    -2.3028    91.8089 H          1           0.0831
     55 H21        -4.2996    -3.5204    92.9929 H          1           0.0787
     56 H22        -2.3680    -1.1804    93.5458 H          1           0.0760
     57 H23        -3.9809    -1.4531    94.2946 H          1           0.0836
     58 H24        -3.2383    -3.6006    95.2477 H          1           0.0923
     59 H25        -1.9256    -2.4357    95.6263 H          1           0.0846
     60 H26         1.8250    -6.5733    92.1098 H          1           0.2181
     61 H27         5.1252    -7.0369    88.2862 H          1           0.1475
     62 H28         6.1267    -8.4512    87.8367 H          1           0.1482
     63 H29         4.9713    -5.6928    84.6774 H          1           0.1319
     64 H30         4.1114    -6.8965    82.7089 H          1           0.1337
     65 H31         4.6626    -9.2736    82.3818 H          1           0.1333
     66 H32         6.0746   -10.4474    84.0229 H          1           0.1321
     67 H33         6.9413    -9.2415    85.9870 H          1           0.1210
@<TRIPOS>BOND
     1    1    2 1
     2    1   37 1
     3    2   30 1
     4    2    3 1
     5    2   31 1
     6    3    4 1
     7    3   38 1
     8    3   39 1
     9    4    5 1
    10    4   40 1
    11    4   41 1
    12    5    6 1
    13    5    7 1
    14    5   30 1
    15    7    8 1
    16    7   42 1
    17    7   43 1
    18    8   13 ar
    19    8    9 ar
    20    9   10 ar
    21    9   44 1
    22   10   11 ar
    23   10   45 1
    24   11   12 ar
    25   11   46 1
    26   12   13 ar
    27   12   14 1
    28   13   47 1
    29   14   29 1
    30   14   15 2
    31   15   16 1
    32   15   48 1
    33   16   17 1
    34   16   49 1
    35   17   29 ar
    36   17   18 ar
    37   18   19 ar
    38   19   20 1
    39   19   26 ar
    40   20   21 1
    41   20   50 1
    42   21   25 1
    43   21   22 1
    44   21   51 1
    45   22   23 1
    46   22   52 1
    47   22   53 1
    48   23   24 1
    49   23   54 1
    50   23   55 1
    51   24   25 1
    52   24   56 1
    53   24   57 1
    54   25   58 1
    55   25   59 1
    56   26   27 1
    57   26   28 ar
    58   28   29 ar
    59   28   60 1
    60   30   61 1
    61   30   62 1
    62   31   36 ar
    63   31   32 ar
    64   32   33 ar
    65   32   63 1
    66   33   34 ar
    67   33   64 1
    68   34   35 ar
    69   34   65 1
    70   35   36 ar
    71   35   66 1
    72   36   67 1
##########                 Name:              T531914
##########          Protonation:                   22
##########               SMILES:   /N=C/1\NC(=[NH2+])NC(N1OCc2ccc3ccccc3c2CON4/C(=N/[H])/[NH+]=C(NC4(C)C)N)(C)C
##########            Long Name:   -2-naphthyl]methoxy]-6-imino-4,4-dimethyl-1,3,5-triazinan-2-ylidene]ammonium
##########          FlexRecCode: 1
##########               Number:                  258
##########   Ligand Source File: /raidb/db2/rgc/tcams/tcams-0000899.db2.gz
##########           GlobalRank: 74
##########                 Rank:                    1
##########               Setnum:                  144
##########             Matchnum:                 2033
##########                Cloud:                    1
##########        Electrostatic:           -59.304665
##########        Van der Waals:           -26.476200
##########  Ligand Polar Desolv:            19.495926
########## Ligand Apolar Desolv:            -2.882388
##########      Internal Energy:             0.000000
##########      Receptor Energy: 0.0
########## Receptor Desolvation:             0.000000
########## Receptor Hydrophobic:             0.000000
##########         Total Energy: -69.17
##########        Ligand Charge:             2.000000
##########            Arbitrary:    +999.9990
##########     heavy atom count:   34
##########           pose count:    1
##########        Ligand Energy:             0.000000
# num electro vdwattr vdwrepu polsolv apolsol rdesolv rhydroe totalscore fullpol fullapo
#   1    0.87   -0.17    0.01   -0.57   -0.02    0.00    0.00       0.12   -5.91   -0.18
#   2   -4.15   -0.20    0.01    1.67   -0.05    0.00    0.00      -2.72   13.45   -0.38
#   3    1.28   -0.13    0.00   -0.40   -0.01    0.00    0.00       0.74   -4.98   -0.16
#   4    8.32   -0.44    0.01   -4.60    0.28    0.00    0.00       3.56  -25.30    1.52
#   5  -17.22   -0.93    0.09    8.71   -1.39    0.00    0.00     -10.74   28.40   -4.53
#   6   20.45   -1.46    0.22  -10.53    0.36    0.00    0.00       9.02  -26.40    0.89
#   7  -12.43   -0.03    0.00    5.75    0.18    0.00    0.00      -6.53   19.43    0.60
#   8  -15.73   -0.03    0.00    7.44    0.23    0.00    0.00      -8.09   19.35    0.60
#   9   20.98   -2.77    2.86   -8.79    0.42    0.00    0.00      12.71  -23.94    1.15
#  10  -17.23   -1.71    0.71    5.58   -1.31    0.00    0.00     -13.96   18.70   -4.39
#  11   25.37   -3.38    3.90   -6.54    0.45    0.00    0.00      19.79  -20.58    1.42
#  12    8.48   -0.77    0.09   -3.18    0.19    0.00    0.00       4.81  -14.54    0.87
#  13    1.21   -1.92    1.49   -0.83    0.09    0.00    0.00       0.04   -3.42    0.36
#  14   -0.71   -0.55    0.16    0.36   -0.02    0.00    0.00      -0.77    1.92   -0.11
#  15    0.48   -1.58    1.69   -0.17   -0.08    0.00    0.00       0.34   -0.84   -0.40
#  16    0.78   -0.80    0.22   -0.34   -0.09    0.00    0.00      -0.22   -1.69   -0.43
#  17    0.60   -1.14    0.18   -0.58   -0.14    0.00    0.00      -1.07   -1.89   -0.46
#  18    0.49   -1.23    0.17   -0.42   -0.14    0.00    0.00      -1.13   -1.20   -0.40
#  19    1.19   -2.00    0.52   -0.73   -0.22    0.00    0.00      -1.23   -1.53   -0.46
#  20    0.91   -1.70    0.17   -0.88   -0.26    0.00    0.00      -1.77   -1.60   -0.47
#  21    0.80   -1.42    0.16   -0.89   -0.24    0.00    0.00      -1.59   -1.76   -0.47
#  22    0.99   -1.22    0.13   -0.48   -0.16    0.00    0.00      -0.74   -1.31   -0.44
#  23    0.22   -1.45    0.66   -0.30   -0.13    0.00    0.00      -0.99   -0.96   -0.40
#  24    0.74   -2.37    3.53   -0.37   -0.10    0.00    0.00       1.42   -1.48   -0.39
#  25   -0.89   -1.33    0.81    0.52   -0.03    0.00    0.00      -0.92    1.80   -0.12
#  26    0.71   -0.75    0.07   -0.69    0.11    0.00    0.00      -0.55   -2.57    0.42
#  27    8.44   -0.77    0.04   -3.61    0.24    0.00    0.00       4.33  -13.05    0.87
#  28  -11.62   -1.15    0.12    6.13   -1.76    0.00    0.00      -8.29   16.01   -4.61
#  29    9.83   -1.42    0.16   -7.71    0.63    0.00    0.00       1.48  -17.52    1.43
#  30   16.23   -2.62    1.58   -9.12    0.48    0.00    0.00       6.56  -19.39    1.02
#  31  -10.92   -0.17    0.05    6.55    0.23    0.00    0.00      -4.25   15.92    0.57
#  32  -25.99   -2.08    0.45   12.38   -2.26    0.00    0.00     -17.51   25.78   -4.70
#  33   29.61   -4.70    2.27  -16.09    0.54    0.00    0.00      11.64  -27.63    0.93
#  34   25.91   -1.67    0.64   -8.72    0.56    0.00    0.00      16.73  -23.48    1.51
#  35   -8.85   -0.45    0.02    2.94   -0.09    0.00    0.00      -6.42   12.86   -0.38
#  36    3.45   -0.36    0.02   -1.11   -0.03    0.00    0.00       1.96   -5.84   -0.18
#  37    2.54   -0.45    0.02   -1.19   -0.04    0.00    0.00       0.88   -4.96   -0.17
#  38   -0.17   -0.03    0.00    0.08   -0.01    0.00    0.00      -0.12    2.86   -0.27
#  39   -0.44   -0.08    0.01    0.30   -0.02    0.00    0.00      -0.24    3.79   -0.28
#  40   -0.31   -0.05    0.00    0.16   -0.01    0.00    0.00      -0.21    3.08   -0.26
#  41   -1.02   -0.05    0.00    0.09   -0.01    0.00    0.00      -0.99    1.89   -0.27
#  42   -0.37   -0.04    0.00    0.06   -0.01    0.00    0.00      -0.36    1.31   -0.28
#  43   -0.62   -0.02    0.00    0.10   -0.01    0.00    0.00      -0.55    3.58   -0.28
#  44   -2.12   -0.01    0.00    1.07    0.04    0.00    0.00      -1.02   16.91    0.58
#  45  -17.11   -0.17    0.08    7.04    0.25    0.00    0.00      -9.92   16.89    0.59
#  46  -19.34   -0.17    0.04    4.12    0.22    0.00    0.00     -15.13   11.29    0.60
#  47   -1.15   -0.12    0.01    0.39   -0.03    0.00    0.00      -0.90    3.43   -0.24
#  48   -0.85   -0.05    0.00    0.15   -0.01    0.00    0.00      -0.76    2.94   -0.20
#  49   -0.68   -0.07    0.00    0.18   -0.01    0.00    0.00      -0.58    2.86   -0.24
#  50   -1.36   -0.38    0.13    0.47   -0.07    0.00    0.00      -1.22    1.85   -0.28
#  51   -2.26   -1.05    1.70    0.67   -0.13    0.00    0.00      -1.06    1.47   -0.28
#  52   -0.74   -0.55    0.14    0.70   -0.15    0.00    0.00      -0.60    1.33   -0.28
#  53   -1.10   -0.45    0.23    0.60   -0.10    0.00    0.00      -0.81    1.70   -0.28
#  54   -1.40   -0.22    0.01    0.52   -0.05    0.00    0.00      -1.13    2.37   -0.21
#  55   -1.50   -0.48    0.25    0.27   -0.05    0.00    0.00      -1.51    1.12   -0.22
#  56   -1.40   -0.66    0.69    0.92   -0.06    0.00    0.00      -0.51    3.45   -0.22
#  57   -5.55   -0.03    0.00    3.26    0.22    0.00    0.00      -2.09    8.42    0.58
#  58  -14.82   -0.17    0.03   10.76    0.36    0.00    0.00      -3.84   17.42    0.59
#  59  -18.66   -0.07    0.00   10.68    0.35    0.00    0.00      -7.70   18.12    0.59
#  60  -22.45   -0.06    0.01    5.32    0.17    0.00    0.00     -17.01   17.86    0.58
#  61   -1.87   -0.09    0.00    0.25   -0.02    0.00    0.00      -1.74    2.72   -0.27
#  62   -2.57   -0.14    0.02    0.62   -0.04    0.00    0.00      -2.11    4.88   -0.28
#  63   -0.60   -0.10    0.01    0.18   -0.03    0.00    0.00      -0.55    1.71   -0.27
#  64   -1.68   -0.10    0.00    0.15   -0.02    0.00    0.00      -1.65    1.73   -0.28
#  65   -0.46   -0.24    0.08    0.85   -0.05    0.00    0.00       0.19    5.23   -0.28
#  66   -1.87   -0.15    0.00    0.37   -0.03    0.00    0.00      -1.67    2.46   -0.19

@<TRIPOS>MOLECULE
          T531914        22
   66    69     0     0     0



@<TRIPOS>ATOM
      1 C1         10.3267    -9.3162    89.3440 C.3        1          -0.1803
      2 C2          9.4316    -8.1274    88.9880 C.3        1           0.4161
      3 C3          8.2880    -8.5842    88.0803 C.3        1          -0.1680
      4 N1         10.2232    -7.0806    88.3189 N.pl3      1          -0.7225
      5 C4          9.6506    -5.8221    88.2029 C.cat      1           0.7670
      6 N2          9.6968    -5.1444    87.0915 N.pl3      1          -0.7112
      7 H1         10.1410    -5.5174    86.3141 H          1           0.4525
      8 H2          9.2871    -4.2666    87.0413 H          1           0.4496
      9 N3          9.0225    -5.3247    89.3439 N.pl3      1          -0.6975
     10 C5          8.3164    -6.2580    90.1016 C.2        1           0.6153
     11 N4          7.1819    -5.9659    90.6710 N.2        1          -0.6612
     12 N5          8.8912    -7.5157    90.2143 N.pl3      1          -0.5002
     13 O1          8.9553    -8.1856    91.4601 O.3        1          -0.0813
     14 C6          7.8218    -9.0114    91.7349 C.3        1           0.0582
     15 C7          8.1830   -10.0255    92.7895 C.ar       1          -0.0547
     16 C8          8.7067   -11.2587    92.4052 C.ar       1          -0.1180
     17 C9          9.0429   -12.1968    93.3321 C.ar       1          -0.0708
     18 C10         8.8611   -11.9211    94.6981 C.ar       1          -0.0524
     19 C11         9.1972   -12.8643    95.6841 C.ar       1          -0.1016
     20 C12         9.0077   -12.5621    96.9975 C.ar       1          -0.1078
     21 C13         8.4843   -11.3288    97.3819 C.ar       1          -0.0982
     22 C14         8.1477   -10.3910    96.4549 C.ar       1          -0.1153
     23 C15         8.3292   -10.6670    95.0889 C.ar       1          -0.0270
     24 C16         7.9984    -9.7214    94.1031 C.ar       1          -0.0773
     25 C17         7.4371    -8.3798    94.4983 C.3        1           0.0601
     26 O2          6.0119    -8.4606    94.5647 O.3        1          -0.0693
     27 N6          5.3826    -7.2459    94.9301 N.pl3      1          -0.4913
     28 C18         5.6556    -6.6342    96.1435 C.2        1           0.5985
     29 N7          6.0690    -7.3446    97.1636 N.2        1          -0.6800
     30 N8          5.4915    -5.3013    96.2647 N.pl3      1          -0.6180
     31 H3          5.6841    -4.8707    97.1123 H          1           0.4522
     32 C19         5.0733    -4.5753    95.2467 C.cat      1           0.7456
     33 N9          4.9057    -3.2268    95.3939 N.pl3      1          -0.7819
     34 N10         4.8067    -5.1701    94.0411 N.pl3      1          -0.6930
     35 C20         4.4202    -6.5865    94.0307 C.3        1           0.4064
     36 C21         4.5326    -7.1591    92.6163 C.3        1          -0.1821
     37 C22         2.9947    -6.7506    94.5616 C.3        1          -0.1613
     38 H4         10.7208    -9.7609    88.4301 H          1           0.0939
     39 H5         11.1529    -8.9750    89.9677 H          1           0.1000
     40 H6          9.7440   -10.0598    89.8877 H          1           0.0645
     41 H7          7.6572    -7.7303    87.8330 H          1           0.0976
     42 H8          8.6986    -9.0098    87.1647 H          1           0.0915
     43 H9          7.6932    -9.3379    88.5964 H          1           0.0964
     44 H10        11.1105    -7.2639    87.9729 H          1           0.4512
     45 H11         9.0735    -4.3891    89.5944 H          1           0.4531
     46 H12         6.8051    -5.0773    90.5740 H          1           0.3683
     47 H13         6.9994    -8.3921    92.0929 H          1           0.0728
     48 H14         7.5185    -9.5270    90.8239 H          1           0.0946
     49 H15         8.8474   -11.4732    91.3561 H          1           0.1329
     50 H16         9.4470   -13.1483    93.0195 H          1           0.1371
     51 H17         9.6032   -13.8242    95.4012 H          1           0.1343
     52 H18         9.2664   -13.2890    97.7532 H          1           0.1307
     53 H19         8.3436   -11.1144    98.4308 H          1           0.1280
     54 H20         7.7428    -9.4396    96.7674 H          1           0.1367
     55 H21         7.8307    -8.0944    95.4740 H          1           0.0946
     56 H22         7.7246    -7.6333    93.7580 H          1           0.0660
     57 H23         6.2588    -6.9122    98.0107 H          1           0.3691
     58 H24         5.0944    -2.8048    96.2467 H          1           0.4438
     59 H25         4.5981    -2.6918    94.6456 H          1           0.4455
     60 H26         4.8739    -4.6683    93.2136 H          1           0.4488
     61 H27         3.8148    -6.6609    91.9646 H          1           0.0969
     62 H28         5.5415    -6.9960    92.2374 H          1           0.0994
     63 H29         4.3215    -8.2283    92.6394 H          1           0.0706
     64 H30         2.2961    -6.2577    93.8855 H          1           0.0932
     65 H31         2.7508    -7.8111    94.6260 H          1           0.0929
     66 H32         2.9215    -6.3003    95.5514 H          1           0.0966
@<TRIPOS>BOND
     1    1    2 1
     2    1   38 1
     3    1   39 1
     4    1   40 1
     5    2   12 1
     6    2    3 1
     7    2    4 1
     8    3   41 1
     9    3   42 1
    10    3   43 1
    11    4    5 1
    12    4   44 1
    13    5    6 2
    14    5    9 1
    15    6    7 1
    16    6    8 1
    17    9   10 1
    18    9   45 1
    19   10   11 2
    20   10   12 1
    21   11   46 1
    22   12   13 1
    23   13   14 1
    24   14   15 1
    25   14   47 1
    26   14   48 1
    27   15   24 ar
    28   15   16 ar
    29   16   17 ar
    30   16   49 1
    31   17   18 ar
    32   17   50 1
    33   18   23 ar
    34   18   19 ar
    35   19   20 ar
    36   19   51 1
    37   20   21 ar
    38   20   52 1
    39   21   22 ar
    40   21   53 1
    41   22   23 ar
    42   22   54 1
    43   23   24 ar
    44   24   25 1
    45   25   26 1
    46   25   55 1
    47   25   56 1
    48   26   27 1
    49   27   35 1
    50   27   28 1
    51   28   29 2
    52   28   30 1
    53   29   57 1
    54   30   31 1
    55   30   32 2
    56   32   33 1
    57   32   34 1
    58   33   58 1
    59   33   59 1
    60   34   35 1
    61   34   60 1
    62   35   36 1
    63   35   37 1
    64   36   61 1
    65   36   62 1
    66   36   63 1
    67   37   64 1
    68   37   65 1
    69   37   66 1
##########                 Name:              T530580
##########          Protonation:                   84
##########               SMILES:   C[NH+]1CC[C@H](C1)Oc2ccc(c3c2cccc3)C[NH+]4CC[C@H](C4)NC(=O)c5ccc(c(c5)Cl)Cl
##########            Long Name:   lpyrrolidin-1-ium-3-yl]oxy-1-naphthyl]methyl]pyrrolidin-1-ium-3-yl]benzamide
##########          FlexRecCode: 1
##########               Number:                  202
##########   Ligand Source File: /raidb/db2/rgc/tcams/tcams-0000721.db2.gz
##########           GlobalRank: 75
##########                 Rank:                    1
##########               Setnum:                  332
##########             Matchnum:                 1911
##########                Cloud:                    1
##########        Electrostatic:           -56.779522
##########        Van der Waals:           -30.179371
##########  Ligand Polar Desolv:            22.420170
########## Ligand Apolar Desolv:            -4.599550
##########      Internal Energy:             0.000000
##########      Receptor Energy: 0.0
########## Receptor Desolvation:             0.000000
########## Receptor Hydrophobic:             0.000000
##########         Total Energy: -69.14
##########        Ligand Charge:             2.000000
##########            Arbitrary:    +999.9990
##########     heavy atom count:   34
##########           pose count:    1
##########        Ligand Energy:             0.000000
# num electro vdwattr vdwrepu polsolv apolsol rdesolv rhydroe totalscore fullpol fullapo
#   1    1.15   -1.76    0.36   -1.24   -0.32    0.00    0.00      -1.81   -1.81   -0.46
#   2    9.41   -1.60    0.22   -8.54    0.35    0.00    0.00      -0.16  -14.28    0.59
#   3  -10.76   -0.04    0.00    8.41    0.25    0.00    0.00      -2.15   18.93    0.56
#   4    0.21   -1.68    0.44    0.19   -0.28    0.00    0.00      -1.11    0.33   -0.49
#   5    4.31   -0.99    0.11   -2.64   -0.11    0.00    0.00       0.67   -6.11   -0.26
#   6   -1.25   -0.86    0.10    0.62   -0.05    0.00    0.00      -1.45    1.55   -0.12
#   7    0.22   -1.27    0.35    0.08   -0.23    0.00    0.00      -0.85    0.16   -0.48
#   8    3.58   -0.77    0.07   -2.86    0.24    0.00    0.00       0.26   -9.63    0.80
#   9   -1.48   -1.11    0.45    0.93   -0.07    0.00    0.00      -1.28    3.91   -0.31
#  10    0.12   -1.16    0.67   -0.70   -0.09    0.00    0.00      -1.16   -3.15   -0.40
#  11    0.10   -0.76    0.11   -0.64   -0.11    0.00    0.00      -1.31   -2.67   -0.45
#  12    0.13   -0.64    0.04   -0.99   -0.12    0.00    0.00      -1.58   -3.91   -0.47
#  13    0.09   -0.73    0.08   -0.79   -0.11    0.00    0.00      -1.46   -3.52   -0.47
#  14    0.33   -0.82    0.13   -0.77   -0.09    0.00    0.00      -1.23   -3.45   -0.40
#  15   -0.01   -1.08    0.40   -0.11   -0.10    0.00    0.00      -0.89   -0.45   -0.40
#  16    3.21   -1.17    0.25   -1.46   -0.09    0.00    0.00       0.74   -5.30   -0.33
#  17   -1.23   -0.96    0.27    0.56   -0.08    0.00    0.00      -1.44    1.99   -0.28
#  18   10.79   -0.88    0.27   -3.41    0.10    0.00    0.00       6.88  -15.29    0.45
#  19  -15.56   -0.03    0.00    3.63    0.09    0.00    0.00     -11.86   19.64    0.49
#  20    0.14   -0.76    0.20    0.16   -0.10    0.00    0.00      -0.37    0.66   -0.42
#  21    2.32   -0.23    0.01   -0.81   -0.04    0.00    0.00       1.24   -5.56   -0.29
#  22   -1.49   -0.22    0.01    0.52   -0.04    0.00    0.00      -1.23    3.63   -0.31
#  23    0.31   -0.22    0.01    0.03   -0.06    0.00    0.00       0.06    0.23   -0.47
#  24    9.11   -0.67    0.06   -4.42    0.45    0.00    0.00       4.54  -20.25    2.08
#  25   -3.13   -1.03    0.22    2.89   -0.15    0.00    0.00      -1.20   12.28   -0.65
#  26   -0.88   -2.95    4.03   -2.28    0.09    0.00    0.00      -1.98   -9.62    0.39
#  27    0.92   -1.17    0.18   -0.70   -0.12    0.00    0.00      -0.89   -2.39   -0.41
#  28    0.25   -1.56    0.29   -0.13   -0.16    0.00    0.00      -1.31   -0.38   -0.44
#  29    0.62   -1.69    0.36   -0.78   -0.19    0.00    0.00      -1.68   -1.94   -0.46
#  30    0.01   -1.55    0.26   -0.28   -0.13    0.00    0.00      -1.68   -0.64   -0.29
#  31    0.35   -5.59    4.77   -0.53   -0.53    0.00    0.00      -1.53   -0.95   -0.95
#  32    0.57   -1.61    0.34   -0.36   -0.11    0.00    0.00      -1.17   -0.94   -0.29
#  33    0.42   -5.91    4.51   -0.48   -0.49    0.00    0.00      -1.95   -0.92   -0.95
#  34    0.46   -1.46    0.40   -0.34   -0.14    0.00    0.00      -1.09   -1.05   -0.44
#  35    0.53   -1.21    0.25   -0.34   -0.12    0.00    0.00      -0.88   -1.22   -0.42
#  36    3.63   -1.06    0.25   -1.83   -0.10    0.00    0.00       0.88   -7.24   -0.41
#  37   -3.02   -0.53    0.08    2.52   -0.15    0.00    0.00      -1.11    4.57   -0.28
#  38   -3.10   -0.60    0.20    2.59   -0.15    0.00    0.00      -1.05    4.96   -0.28
#  39   -2.94   -0.81    0.34    3.01   -0.17    0.00    0.00      -0.57    5.08   -0.28
#  40   -3.36   -1.01    1.14    2.85   -0.11    0.00    0.00      -0.50    6.50   -0.26
#  41   -3.68   -0.77    0.30    3.29   -0.15    0.00    0.00      -1.02    6.20   -0.28
#  42   -2.95   -0.34    0.06    1.35   -0.08    0.00    0.00      -1.95    4.29   -0.25
#  43   -3.45   -0.33    0.07    0.82   -0.08    0.00    0.00      -2.98    2.70   -0.28
#  44   -1.81   -0.49    0.25    1.63   -0.08    0.00    0.00      -0.50    4.68   -0.22
#  45   -3.62   -0.78    1.25    1.65   -0.09    0.00    0.00      -1.59    4.88   -0.28
#  46   -3.36   -0.83    1.24    2.22   -0.09    0.00    0.00      -0.82    6.21   -0.26
#  47   -0.17   -0.15    0.01    0.38   -0.05    0.00    0.00       0.03    2.25   -0.27
#  48   -0.12   -0.12    0.00    0.19   -0.03    0.00    0.00      -0.08    1.56   -0.28
#  49   -0.19   -0.13    0.01    0.43   -0.04    0.00    0.00       0.08    3.13   -0.28
#  50   -0.34   -0.13    0.01    1.10   -0.03    0.00    0.00       0.60    7.93   -0.22
#  51   -1.92   -0.13    0.01    1.07   -0.03    0.00    0.00      -1.01    7.44   -0.24
#  52   -6.68   -1.11    1.79    2.81   -0.09    0.00    0.00      -3.29    7.96   -0.26
#  53   -3.93   -0.24    0.04    1.39   -0.05    0.00    0.00      -2.79    6.69   -0.24
#  54   -4.74   -0.46    0.24    1.75   -0.08    0.00    0.00      -3.28    6.24   -0.28
#  55   -1.33   -0.03    0.00    0.05   -0.01    0.00    0.00      -1.33    1.48   -0.28
#  56   -1.35   -0.08    0.00    0.28   -0.02    0.00    0.00      -1.17    3.39   -0.28
#  57   -0.70   -0.05    0.00    0.14   -0.01    0.00    0.00      -0.62    2.91   -0.26
#  58   -1.46   -0.07    0.00    0.59   -0.02    0.00    0.00      -0.96    8.40   -0.26
#  59   -1.27   -0.04    0.00    0.31   -0.01    0.00    0.00      -1.00    8.12   -0.26
#  60   -7.46   -0.02    0.00    2.85    0.08    0.00    0.00      -4.55   15.18    0.43
#  61   -0.10   -0.45    0.14    2.33   -0.07    0.00    0.00       1.84    7.87   -0.22
#  62   -0.81   -0.44    0.14    1.41   -0.10    0.00    0.00       0.21    4.03   -0.28
#  63   -3.14   -0.30    0.08    0.29   -0.06    0.00    0.00      -3.14    1.34   -0.26
#  64   -4.52   -0.25    0.04    1.60   -0.06    0.00    0.00      -3.19    7.43   -0.27
#  65   -2.75   -0.15    0.01    0.95   -0.03    0.00    0.00      -1.97    6.14   -0.17

@<TRIPOS>MOLECULE
          T530580        84
   65    69     0     0     0



@<TRIPOS>ATOM
      1 C1         -3.5125    -2.0462    93.4519 C.3        1          -0.0484
      2 N1         -2.8661    -3.3419    93.6997 N.4        1          -0.3882
      3 H1         -3.5138    -3.9626    94.1615 H          1           0.4360
      4 C2         -1.6717    -3.1476    94.5491 C.3        1          -0.0087
      5 C3         -0.6403    -4.1767    94.0226 C.3        1          -0.1732
      6 C4         -0.9125    -4.1401    92.4957 C.3        1           0.0667
      7 C5         -2.4372    -3.9353    92.4198 C.3        1          -0.0092
      8 O1         -0.5361    -5.3763    91.8856 O.3        1          -0.2869
      9 C6          0.7407    -5.4776    91.4342 C.ar       1           0.1837
     10 C7          0.9934    -5.7273    90.0697 C.ar       1          -0.0716
     11 C8         -0.0561    -5.8761    89.1489 C.ar       1          -0.0728
     12 C9          0.2259    -6.1160    87.8389 C.ar       1          -0.1158
     13 C10         1.5432    -6.2166    87.3955 C.ar       1          -0.0610
     14 C11         2.5855    -6.0783    88.2598 C.ar       1          -0.1563
     15 C12         2.3328    -5.8294    89.6197 C.ar       1           0.0027
     16 C13         3.3836    -5.6793    90.5413 C.ar       1          -0.1815
     17 C14         4.8144    -5.7842    90.0804 C.3        1           0.0457
     18 N2          5.5715    -6.6215    91.0203 N.4        1          -0.3886
     19 H2          5.5466    -6.2092    91.9409 H          1           0.4267
     20 C15         6.9506    -6.7407    90.5718 C.3        1          -0.0050
     21 C16         7.1786    -8.2147    90.2619 C.3        1          -0.1595
     22 C17         6.2172    -8.8786    91.2634 C.3        1           0.1371
     23 C18         4.9902    -7.9685    91.0643 C.3        1          -0.0234
     24 N3          6.7307    -8.7962    92.6331 N.am       1          -0.7267
     25 C19         6.3431    -9.7011    93.5536 C.2        1           0.5764
     26 O2          5.5674   -10.5855    93.2475 O.2        1          -0.5102
     27 C20         6.8609    -9.6180    94.9352 C.ar       1          -0.1362
     28 C21         6.9530   -10.7696    95.7195 C.ar       1          -0.0707
     29 C22         7.4372   -10.6867    97.0079 C.ar       1          -0.1036
     30 C23         7.8319    -9.4639    97.5253 C.ar       1          -0.0011
     31 Cl1         8.4404    -9.3676    99.1483 Cl         1          -0.0206
     32 C24         7.7429    -8.3170    96.7521 C.ar       1          -0.0404
     33 Cl2         8.2397    -6.7887    97.4087 Cl         1          -0.0217
     34 C25         7.2652    -8.3889    95.4592 C.ar       1          -0.0337
     35 C26         3.1039    -5.4383    91.8517 C.ar       1          -0.0233
     36 C27         1.7893    -5.3326    92.2981 C.ar       1          -0.2337
     37 H3         -2.8095    -1.3790    92.9530 H          1           0.1289
     38 H4         -4.3873    -2.1920    92.8181 H          1           0.1304
     39 H5         -3.8203    -1.6064    94.4005 H          1           0.1239
     40 H6         -1.2871    -2.1338    94.4370 H          1           0.1398
     41 H7         -1.9112    -3.3504    95.5928 H          1           0.1456
     42 H8          0.3779    -3.8581    94.2456 H          1           0.1232
     43 H9         -0.8356    -5.1686    94.4305 H          1           0.1141
     44 H10        -0.3889    -3.3048    92.0309 H          1           0.1167
     45 H11        -2.9315    -4.8954    92.2722 H          1           0.1484
     46 H12        -2.6796    -3.2606    91.5988 H          1           0.1492
     47 H13        -1.0819    -5.8009    89.4784 H          1           0.1389
     48 H14        -0.5833    -6.2305    87.1328 H          1           0.1393
     49 H15         1.7398    -6.4076    86.3509 H          1           0.1390
     50 H16         3.6014    -6.1594    87.9024 H          1           0.1264
     51 H17         4.8443    -6.2339    89.0879 H          1           0.1403
     52 H18         5.2577    -4.7891    90.0419 H          1           0.1417
     53 H19         7.1061    -6.1409    89.6750 H          1           0.1347
     54 H20         7.6300    -6.4141    91.3592 H          1           0.1353
     55 H21         6.8977    -8.4477    89.2347 H          1           0.1256
     56 H22         8.2113    -8.5022    90.4595 H          1           0.1040
     57 H23         5.9985    -9.9088    90.9822 H          1           0.1290
     58 H24         4.3024    -8.0636    91.9045 H          1           0.1386
     59 H25         4.4861    -8.2008    90.1261 H          1           0.1478
     60 H26         7.3496    -8.0905    92.8774 H          1           0.4080
     61 H27         6.6451   -11.7236    95.3178 H          1           0.1383
     62 H28         7.5087   -11.5770    97.6150 H          1           0.1548
     63 H29         7.2004    -7.4957    94.8557 H          1           0.1586
     64 H30         3.9149    -5.3243    92.5559 H          1           0.1387
     65 H31         1.5956    -5.1369    93.3424 H          1           0.1378
@<TRIPOS>BOND
     1    1    2 1
     2    1   37 1
     3    1   38 1
     4    1   39 1
     5    2    3 1
     6    2    7 1
     7    2    4 1
     8    4    5 1
     9    4   40 1
    10    4   41 1
    11    5    6 1
    12    5   42 1
    13    5   43 1
    14    6    7 1
    15    6    8 1
    16    6   44 1
    17    7   45 1
    18    7   46 1
    19    8    9 1
    20    9   36 ar
    21    9   10 ar
    22   10   15 ar
    23   10   11 ar
    24   11   12 ar
    25   11   47 1
    26   12   13 ar
    27   12   48 1
    28   13   14 ar
    29   13   49 1
    30   14   15 ar
    31   14   50 1
    32   15   16 ar
    33   16   17 1
    34   16   35 ar
    35   17   18 1
    36   17   51 1
    37   17   52 1
    38   18   19 1
    39   18   23 1
    40   18   20 1
    41   20   21 1
    42   20   53 1
    43   20   54 1
    44   21   22 1
    45   21   55 1
    46   21   56 1
    47   22   23 1
    48   22   24 1
    49   22   57 1
    50   23   58 1
    51   23   59 1
    52   24   25 am
    53   24   60 1
    54   25   26 2
    55   25   27 1
    56   27   34 ar
    57   27   28 ar
    58   28   29 ar
    59   28   61 1
    60   29   30 ar
    61   29   62 1
    62   30   31 1
    63   30   32 ar
    64   32   33 1
    65   32   34 ar
    66   34   63 1
    67   35   36 ar
    68   35   64 1
    69   36   65 1
##########                 Name:              T543005
##########          Protonation:                   36
##########               SMILES:   C[NH+]1CCN(CC1)CC(=O)Nc2cccc(c2)c3cccc(c3)c4[nH]c5ccc(cc5n4)C(F)(F)F
##########            Long Name:   l)-N-[3-[3-[5-(trifluoromethyl)-1H-benzimidazol-2-yl]phenyl]phenyl]acetamide
##########          FlexRecCode: 1
##########               Number:                  220
##########   Ligand Source File: /raidb/db2/rgc/tcams/tcams-0002317.db2.gz
##########           GlobalRank: 76
##########                 Rank:                    1
##########               Setnum:                  168
##########             Matchnum:                 3280
##########                Cloud:                    1
##########        Electrostatic:           -40.618153
##########        Van der Waals:           -34.378616
##########  Ligand Polar Desolv:             9.717365
########## Ligand Apolar Desolv:            -3.716762
##########      Internal Energy:             0.000000
##########      Receptor Energy: 0.0
########## Receptor Desolvation:             0.000000
########## Receptor Hydrophobic:             0.000000
##########         Total Energy: -69.0
##########        Ligand Charge:             1.000000
##########            Arbitrary:    +999.9990
##########     heavy atom count:   36
##########           pose count:    1
##########        Ligand Energy:             0.000000
# num electro vdwattr vdwrepu polsolv apolsol rdesolv rhydroe totalscore fullpol fullapo
#   1    0.87   -0.40    0.02   -0.43   -0.10    0.00    0.00      -0.04   -1.85   -0.45
#   2    9.77   -0.84    0.10   -3.54    0.18    0.00    0.00       5.67  -10.93    0.57
#   3  -12.24   -0.02    0.00    4.31    0.15    0.00    0.00      -7.80   16.16    0.56
#   4    0.05   -0.76    0.14    0.10   -0.11    0.00    0.00      -0.58    0.37   -0.43
#   5   -0.38   -0.35    0.02    0.07   -0.07    0.00    0.00      -0.70    0.40   -0.39
#   6    3.73   -1.23    0.36   -3.14    0.79    0.00    0.00       0.52  -11.98    3.03
#   7   -0.11   -0.51    0.07    0.22   -0.09    0.00    0.00      -0.42    1.04   -0.42
#   8   -1.33   -0.79    0.12    1.51   -0.14    0.00    0.00      -0.63    6.74   -0.62
#   9    0.89   -0.45    0.02   -0.97    0.05    0.00    0.00      -0.46   -5.24    0.29
#  10    5.15   -1.16    0.18   -2.46    0.46    0.00    0.00       2.17   -8.83    1.65
#  11   -1.25   -1.34    0.66    0.34   -0.18    0.00    0.00      -1.76    1.30   -0.68
#  12    0.20   -1.73    1.95   -0.22   -0.10    0.00    0.00       0.10   -0.86   -0.40
#  13    0.45   -1.21    0.61   -0.15   -0.12    0.00    0.00      -0.41   -0.58   -0.47
#  14    1.33   -0.83    0.11   -0.16   -0.11    0.00    0.00       0.35   -0.66   -0.44
#  15    0.39   -0.74    0.07   -0.07   -0.09    0.00    0.00      -0.45   -0.31   -0.41
#  16    2.37   -0.94    0.15   -0.29   -0.11    0.00    0.00       1.18   -1.17   -0.43
#  17    0.95   -0.68    0.02   -0.10   -0.11    0.00    0.00       0.09   -0.39   -0.41
#  18    2.28   -1.17    0.11   -0.29   -0.17    0.00    0.00       0.76   -0.77   -0.44
#  19    3.02   -1.89    0.33   -0.53   -0.22    0.00    0.00       0.71   -1.15   -0.47
#  20    2.09   -1.66    0.24   -0.37   -0.21    0.00    0.00       0.09   -0.79   -0.45
#  21    0.46   -0.97    0.06   -0.11   -0.14    0.00    0.00      -0.71   -0.34   -0.41
#  22    1.01   -0.65    0.02   -0.08   -0.10    0.00    0.00       0.20   -0.34   -0.42
#  23   -4.05   -1.20    0.14    0.26   -0.76    0.00    0.00      -5.60    0.74   -2.13
#  24    1.02   -2.61    2.72    0.21    0.69    0.00    0.00       2.03    0.63    2.04
#  25   -0.28   -1.68    0.35   -0.03   -0.29    0.00    0.00      -1.92   -0.08   -0.79
#  26    0.02   -1.79    0.36   -0.02   -0.17    0.00    0.00      -1.60   -0.06   -0.44
#  27    1.61   -1.41    0.20   -0.11   -0.16    0.00    0.00       0.14   -0.26   -0.38
#  28    0.80   -1.63    0.24   -0.15   -0.21    0.00    0.00      -0.96   -0.32   -0.44
#  29    1.66   -1.73    0.24   -0.23   -0.24    0.00    0.00      -0.30   -0.46   -0.47
#  30   -1.04   -1.34    0.12    0.08   -0.33    0.00    0.00      -2.51    0.19   -0.78
#  31    9.72   -1.44    0.23   -1.26    0.48    0.00    0.00       7.73   -2.98    1.14
#  32   -4.27   -0.90    0.07    0.15   -0.04    0.00    0.00      -5.00    0.28   -0.07
#  33    1.39   -0.84    0.07    0.03   -0.25    0.00    0.00       0.41    0.05   -0.48
#  34    1.81   -0.99    0.22   -0.08   -0.21    0.00    0.00       0.75   -0.17   -0.45
#  35    1.23   -1.16    0.18    0.07   -0.27    0.00    0.00       0.05    0.11   -0.45
#  36   -0.13   -0.93    0.21    0.07   -0.12    0.00    0.00      -0.90    0.21   -0.37
#  37    0.02   -1.21    0.30    0.25   -0.18    0.00    0.00      -0.82    0.61   -0.43
#  38   -1.37   -0.12    0.01    0.47   -0.03    0.00    0.00      -1.03    4.17   -0.28
#  39   -2.29   -0.19    0.02    1.02   -0.06    0.00    0.00      -1.49    4.91   -0.28
#  40   -1.23   -0.06    0.00    0.16   -0.01    0.00    0.00      -1.13    2.87   -0.15
#  41   -3.08   -0.14    0.01    0.92   -0.04    0.00    0.00      -2.33    6.05   -0.28
#  42   -5.66   -0.76    0.65    1.12   -0.09    0.00    0.00      -4.75    3.51   -0.28
#  43   -0.62   -0.05    0.00    0.13   -0.01    0.00    0.00      -0.54    2.62   -0.21
#  44   -1.94   -0.08    0.00    0.20   -0.02    0.00    0.00      -1.83    2.61   -0.28
#  45   -0.21   -0.27    0.08    0.50   -0.05    0.00    0.00       0.05    2.75   -0.28
#  46   -0.32   -0.06    0.00    0.17   -0.02    0.00    0.00      -0.22    3.08   -0.28
#  47   -9.18   -0.02    0.00    2.11    0.16    0.00    0.00      -6.93    7.73    0.59
#  48   -0.20   -0.25    0.09    0.15   -0.04    0.00    0.00      -0.25    0.75   -0.22
#  49   -0.62   -0.19    0.02    0.13   -0.05    0.00    0.00      -0.71    0.67   -0.28
#  50   -2.34   -0.15    0.01    0.03   -0.03    0.00    0.00      -2.49    0.19   -0.22
#  51   -3.50   -0.18    0.02    0.40   -0.04    0.00    0.00      -3.29    2.41   -0.22
#  52   -3.33   -0.25    0.02    0.63   -0.05    0.00    0.00      -2.98    2.47   -0.21
#  53   -4.29   -0.65    0.21    1.37   -0.15    0.00    0.00      -3.51    2.62   -0.28
#  54   -2.59   -0.59    0.28    0.91   -0.11    0.00    0.00      -2.10    1.97   -0.24
#  55   -2.34   -0.10    0.00    0.00   -0.02    0.00    0.00      -2.46   -0.02   -0.20
#  56    0.07   -0.50    0.15   -0.04   -0.09    0.00    0.00      -0.41   -0.11   -0.27
#  57   -2.25   -0.34    0.04    0.50   -0.11    0.00    0.00      -2.16    1.23   -0.27
#  58   -2.62   -0.47    0.09    0.94   -0.13    0.00    0.00      -2.19    2.00   -0.28
#  59   -8.22   -0.05    0.00    1.47    0.17    0.00    0.00      -6.62    4.53    0.53
#  60   -0.28   -0.23    0.05    0.38   -0.04    0.00    0.00      -0.12    2.14   -0.22
#  61   -0.67   -0.43    0.15    0.18   -0.06    0.00    0.00      -0.84    0.62   -0.20
#  62   -6.37   -1.05    1.32    1.23   -0.12    0.00    0.00      -4.99    2.91   -0.28
#  63   -4.41   -0.34    0.04    1.76   -0.10    0.00    0.00      -3.05    4.71   -0.28

@<TRIPOS>MOLECULE
          T543005        36
   63    67     0     0     0



@<TRIPOS>ATOM
      1 C1          8.9017    -6.7032    87.1640 C.3        1          -0.0575
      2 N1          8.5195    -5.5722    88.0200 N.4        1          -0.3859
      3 H1          9.3462    -5.1734    88.4390 H          1           0.4312
      4 C2          7.6135    -6.0423    89.0762 C.3        1          -0.0020
      5 C3          6.3678    -6.6638    88.4408 C.3        1           0.0248
      6 N2          5.6946    -5.6594    87.6052 N.3        1          -0.5215
      7 C4          4.4605    -6.2019    87.0215 C.3        1           0.0365
      8 C5          3.3584    -6.1599    88.0484 C.2        1           0.5138
      9 O1          2.2505    -6.5648    87.7659 O.2        1          -0.5042
     10 N3          3.6036    -5.6725    89.2808 N.am       1          -0.6684
     11 C6          2.5802    -5.6335    90.2344 C.ar       1           0.1368
     12 C7          1.2588    -5.4875    89.8302 C.ar       1          -0.1146
     13 C8          0.2456    -5.4485    90.7689 C.ar       1          -0.0966
     14 C9          0.5403    -5.5545    92.1137 C.ar       1          -0.1133
     15 C10         1.8627    -5.7015    92.5280 C.ar       1          -0.0243
     16 C11         2.8838    -5.7462    91.5825 C.ar       1          -0.1305
     17 C12         2.1813    -5.8151    93.9731 C.ar       1          -0.0469
     18 C13         1.3674    -5.1921    94.9186 C.ar       1          -0.0914
     19 C14         1.6618    -5.2962    96.2640 C.ar       1          -0.1112
     20 C15         2.7631    -6.0166    96.6818 C.ar       1          -0.0959
     21 C16         3.5856    -6.6442    95.7448 C.ar       1          -0.0272
     22 C17         3.2887    -6.5476    94.3867 C.ar       1          -0.0566
     23 C18         4.7660    -7.4152    96.1929 C.2        1           0.3312
     24 N4          4.9657    -8.6894    95.9620 N.2        1          -0.4690
     25 C19         6.1433    -9.0728    96.5124 C.ar       1           0.0471
     26 C20         6.8279   -10.2915    96.5654 C.ar       1          -0.0045
     27 C21         8.0290   -10.3699    97.2107 C.ar       1          -0.1855
     28 C22         8.5813    -9.2505    97.8173 C.ar       1          -0.0584
     29 C23         7.9249    -8.0385    97.7781 C.ar       1          -0.1050
     30 C24         6.7030    -7.9386    97.1271 C.ar       1           0.0783
     31 N5          5.8163    -6.9033    96.9058 N.pl3      1          -0.5913
     32 C25         8.7619   -11.6855    97.2651 C.3        1           0.5130
     33 F1          8.0191   -12.6613    96.5918 F          1          -0.1742
     34 F2         10.0131   -11.5479    96.6543 F          1          -0.1742
     35 F3          8.9340   -12.0688    98.5995 F          1          -0.1755
     36 C26         6.5977    -5.1612    86.5582 C.3        1           0.0175
     37 C27         7.8412    -4.5522    87.2093 C.3        1          -0.0007
     38 H2          8.0087    -7.1341    86.7111 H          1           0.1261
     39 H3          9.5745    -6.3547    86.3804 H          1           0.1261
     40 H4          9.4054    -7.4600    87.7653 H          1           0.1184
     41 H5          8.1220    -6.7897    89.6851 H          1           0.1379
     42 H6          7.3199    -5.2010    89.7039 H          1           0.1404
     43 H7          6.6598    -7.5136    87.8238 H          1           0.0640
     44 H8          5.6887    -6.9993    89.2246 H          1           0.1248
     45 H9          4.1741    -5.6035    86.1565 H          1           0.0797
     46 H10         4.6283    -7.2330    86.7106 H          1           0.1222
     47 H11         4.4897    -5.3487    89.5068 H          1           0.4131
     48 H12         1.0230    -5.4038    88.7794 H          1           0.1364
     49 H13        -0.7800    -5.3346    90.4498 H          1           0.1322
     50 H14        -0.2541    -5.5229    92.8446 H          1           0.1334
     51 H15         3.9098    -5.8637    91.8986 H          1           0.1303
     52 H16         0.5050    -4.6266    94.5981 H          1           0.1302
     53 H17         1.0282    -4.8118    96.9922 H          1           0.1355
     54 H18         2.9886    -6.0944    97.7350 H          1           0.1246
     55 H19         3.9190    -7.0356    93.6579 H          1           0.1451
     56 H20         6.4071   -11.1690    96.0971 H          1           0.1463
     57 H21         9.5319    -9.3292    98.3239 H          1           0.1474
     58 H22         8.3596    -7.1707    98.2516 H          1           0.1393
     59 H23         5.9176    -5.9853    97.2025 H          1           0.4277
     60 H24         6.8935    -5.9863    85.9103 H          1           0.0589
     61 H25         6.0863    -4.4005    85.9686 H          1           0.1381
     62 H26         7.5464    -3.7185    87.8467 H          1           0.1414
     63 H27         8.5188    -4.1948    86.4338 H          1           0.1367
@<TRIPOS>BOND
     1    1    2 1
     2    1   38 1
     3    1   39 1
     4    1   40 1
     5    2    3 1
     6    2   37 1
     7    2    4 1
     8    4    5 1
     9    4   41 1
    10    4   42 1
    11    5    6 1
    12    5   43 1
    13    5   44 1
    14    6    7 1
    15    6   36 1
    16    7    8 1
    17    7   45 1
    18    7   46 1
    19    8    9 2
    20    8   10 am
    21   10   11 1
    22   10   47 1
    23   11   16 ar
    24   11   12 ar
    25   12   13 ar
    26   12   48 1
    27   13   14 ar
    28   13   49 1
    29   14   15 ar
    30   14   50 1
    31   15   16 ar
    32   15   17 1
    33   16   51 1
    34   17   22 ar
    35   17   18 ar
    36   18   19 ar
    37   18   52 1
    38   19   20 ar
    39   19   53 1
    40   20   21 ar
    41   20   54 1
    42   21   22 ar
    43   21   23 1
    44   22   55 1
    45   23   31 1
    46   23   24 2
    47   24   25 1
    48   25   30 ar
    49   25   26 ar
    50   26   27 ar
    51   26   56 1
    52   27   28 ar
    53   27   32 1
    54   28   29 ar
    55   28   57 1
    56   29   30 ar
    57   29   58 1
    58   30   31 1
    59   31   59 1
    60   32   33 1
    61   32   34 1
    62   32   35 1
    63   36   37 1
    64   36   60 1
    65   36   61 1
    66   37   62 1
    67   37   63 1
##########                 Name:              T541422
##########          Protonation:                   13
##########               SMILES:   Cc1cc(ccc1)C(=O)Nc2cc([nH+]cc2)N([C@H]3CC[NH+](CC3)Cc4cc(ccc4)O)C
##########            Long Name:   yl]piperidin-1-ium-4-yl]-methyl-amino]pyridin-1-ium-4-yl]-3-methyl-benzamide
##########          FlexRecCode: 1
##########               Number:                  143
##########   Ligand Source File: /raidb/db2/rgc/tcams/tcams-0002098.db2.gz
##########           GlobalRank: 77
##########                 Rank:                    1
##########               Setnum:                  356
##########             Matchnum:                  524
##########                Cloud:                    1
##########        Electrostatic:           -42.518143
##########        Van der Waals:           -27.862747
##########  Ligand Polar Desolv:             4.637722
########## Ligand Apolar Desolv:            -3.206942
##########      Internal Energy:             0.000000
##########      Receptor Energy: 0.0
########## Receptor Desolvation:             0.000000
########## Receptor Hydrophobic:             0.000000
##########         Total Energy: -68.95
##########        Ligand Charge:             2.000000
##########            Arbitrary:    +999.9990
##########     heavy atom count:   32
##########           pose count:    1
##########        Ligand Energy:             0.000000
# num electro vdwattr vdwrepu polsolv apolsol rdesolv rhydroe totalscore fullpol fullapo
#   1   -0.44   -0.15    0.00    0.07   -0.04    0.00    0.00      -0.55    0.77   -0.41
#   2    9.96   -0.39    0.02   -3.45    0.19    0.00    0.00       6.33  -24.81    1.35
#   3   -2.50   -0.43    0.05    0.97   -0.05    0.00    0.00      -1.98    4.84   -0.26
#   4    4.29   -1.05    0.32   -1.90   -0.06    0.00    0.00       1.59   -6.74   -0.21
#   5    1.17   -1.21    0.40   -0.48   -0.11    0.00    0.00      -0.24   -1.45   -0.34
#   6    7.14   -0.50    0.02   -3.96    0.06    0.00    0.00       2.78  -16.67    0.27
#   7   -8.83   -0.01    0.00    2.91    0.07    0.00    0.00      -5.85   21.42    0.54
#   8   -0.48   -0.45    0.05    0.58   -0.07    0.00    0.00      -0.36    2.80   -0.36
#   9    1.09   -1.52    0.45   -0.93   -0.11    0.00    0.00      -1.02   -2.88   -0.33
#  10    0.43   -1.52    0.30   -1.02   -0.16    0.00    0.00      -1.97   -2.93   -0.45
#  11    0.38   -2.57    0.94   -1.65   -0.22    0.00    0.00      -3.12   -3.50   -0.47
#  12    0.83   -2.73    0.97   -2.41   -0.26    0.00    0.00      -3.60   -4.21   -0.46
#  13   -2.86   -3.59    4.41    0.51   -0.17    0.00    0.00      -1.68    0.94   -0.31
#  14   12.13   -4.01    4.70   -7.18    0.78    0.00    0.00       6.43  -10.89    1.19
#  15    3.50   -2.86    2.82   -1.37   -0.15    0.00    0.00       1.94   -3.29   -0.35
#  16    0.15   -0.22    0.01   -0.13   -0.05    0.00    0.00      -0.24   -0.91   -0.34
#  17    2.16   -0.17    0.00   -0.81   -0.02    0.00    0.00       1.16   -7.66   -0.22
#  18   -7.65   -0.48    0.03    3.43   -0.33    0.00    0.00      -5.01   19.60   -1.91
#  19    2.92   -0.58    0.04   -1.68   -0.09    0.00    0.00       0.61   -7.94   -0.43
#  20   -2.63   -1.00    0.22    1.92   -0.17    0.00    0.00      -1.66    7.82   -0.68
#  21    3.93   -1.22    0.22   -5.25    0.48    0.00    0.00      -1.84  -18.09    1.64
#  22   -4.46   -1.26    0.14    4.25   -0.22    0.00    0.00      -1.55   12.38   -0.64
#  23    5.43   -1.04    0.06   -3.86    0.13    0.00    0.00       0.72   -9.95    0.33
#  24    1.25   -1.47    0.22   -1.12   -0.16    0.00    0.00      -1.28   -2.95   -0.41
#  25    0.28   -1.50    0.19   -0.68   -0.19    0.00    0.00      -1.90   -1.56   -0.43
#  26    0.61   -1.69    0.20   -1.04   -0.23    0.00    0.00      -2.15   -1.84   -0.40
#  27    1.25   -1.84    0.52   -0.93   -0.12    0.00    0.00      -1.11   -1.56   -0.20
#  28    0.58   -2.19    0.56   -1.13   -0.26    0.00    0.00      -2.44   -1.96   -0.45
#  29    1.49   -2.34    0.97   -1.40   -0.25    0.00    0.00      -1.53   -2.60   -0.47
#  30    1.15   -1.80    0.46   -0.63   -0.21    0.00    0.00      -1.03   -1.32   -0.44
#  31    1.47   -1.10    0.37   -1.87   -0.10    0.00    0.00      -1.23   -7.73   -0.41
#  32   -2.56   -0.62    0.04    1.57   -0.19    0.00    0.00      -1.76    7.94   -0.97
#  33    9.61   -0.52    0.02   -3.81    0.15    0.00    0.00       5.45  -19.83    0.80
#  34   -8.68   -0.01    0.00    2.33    0.04    0.00    0.00      -6.32   20.59    0.39
#  35   -0.43   -0.04    0.00    0.23   -0.01    0.00    0.00      -0.24    6.09   -0.23
#  36   -0.72   -0.06    0.00    0.21   -0.02    0.00    0.00      -0.58    3.37   -0.24
#  37   -0.54   -0.02    0.00    0.19   -0.01    0.00    0.00      -0.38    6.15   -0.18
#  38   -3.34   -0.22    0.04    1.15   -0.05    0.00    0.00      -2.42    5.59   -0.26
#  39   -1.85   -0.16    0.02    0.85   -0.04    0.00    0.00      -1.19    5.39   -0.23
#  40   -5.57   -1.02    1.36    2.01   -0.09    0.00    0.00      -3.31    6.09   -0.28
#  41   -5.38   -0.55    0.24    2.80   -0.04    0.00    0.00      -2.94    8.13   -0.13
#  42   -5.29   -0.75    0.82    2.78   -0.09    0.00    0.00      -2.53    8.36   -0.28
#  43   -1.07   -0.21    0.09    1.09   -0.04    0.00    0.00      -0.14    8.14   -0.28
#  44   -1.12   -0.07    0.00    0.56   -0.02    0.00    0.00      -0.65    8.45   -0.27
#  45   -0.46   -0.18    0.02    1.11   -0.05    0.00    0.00       0.44    6.75   -0.28
#  46   -0.47   -0.82    0.64    0.97   -0.13    0.00    0.00       0.19    2.14   -0.28
#  47   -1.42   -0.56    0.17    0.39   -0.16    0.00    0.00      -1.58    0.70   -0.28
#  48  -20.39   -0.41    0.51    5.55    0.68    0.00    0.00     -14.05    9.97    1.22
#  49   -4.34   -0.45    0.15    2.18   -0.09    0.00    0.00      -2.55    6.52   -0.28
#  50   -0.97   -0.04    0.00    0.28   -0.01    0.00    0.00      -0.74    7.20   -0.27
#  51   -2.20   -0.09    0.00    0.49   -0.02    0.00    0.00      -1.82    4.71   -0.20
#  52   -1.20   -0.04    0.00    0.23   -0.01    0.00    0.00      -1.02    6.39   -0.28
#  53   -0.86   -0.03    0.00    0.16   -0.01    0.00    0.00      -0.74    4.57   -0.20
#  54   -1.98   -0.09    0.00    0.72   -0.02    0.00    0.00      -1.37    8.99   -0.22
#  55   -2.03   -0.02    0.00    2.45    0.08    0.00    0.00       0.49   14.13    0.46
#  56   -0.49   -0.32    0.04    0.40   -0.08    0.00    0.00      -0.45    1.37   -0.27
#  57   -0.47   -1.19    1.40    0.44   -0.16    0.00    0.00       0.01    0.75   -0.28
#  58   -0.79   -0.75    0.46    0.48   -0.16    0.00    0.00      -0.77    0.84   -0.28
#  59   -1.12   -0.61    0.39    0.40   -0.13    0.00    0.00      -1.07    0.83   -0.28
#  60   -0.60   -0.63    0.25    1.05   -0.16    0.00    0.00      -0.09    1.83   -0.28
#  61   -2.40   -0.67    0.40    1.77   -0.14    0.00    0.00      -1.04    3.47   -0.28
#  62   -2.01   -0.31    0.03    2.44   -0.09    0.00    0.00       0.06    6.21   -0.22
#  63   -1.29   -0.27    0.09    0.53   -0.04    0.00    0.00      -1.00    2.57   -0.22
#  64   -3.84   -0.11    0.00    0.89   -0.03    0.00    0.00      -3.07    9.80   -0.28

@<TRIPOS>MOLECULE
          T541422        13
   64    67     0     0     0



@<TRIPOS>ATOM
      1 C1          4.2355    -7.8868    89.6489 C.3        1           0.0549
      2 N1          5.2981    -7.5336    90.5935 N.pl3      1          -0.6047
      3 C2          6.5876    -7.0469    90.0970 C.3        1           0.1127
      4 C3          6.3732    -5.7747    89.2727 C.3        1          -0.1486
      5 C4          7.7181    -5.3098    88.7101 C.3        1          -0.0373
      6 N2          8.2867    -6.3584    87.8542 N.4        1          -0.3799
      7 H1          9.1521    -6.0298    87.4529 H          1           0.4265
      8 C5          7.3393    -6.6742    86.7767 C.3        1           0.0457
      9 C6          7.0828    -5.4372    85.9550 C.ar       1          -0.1506
     10 C7          5.7902    -5.1024    85.5958 C.ar       1          -0.1013
     11 C8          5.5514    -3.9681    84.8423 C.ar       1          -0.0900
     12 C9          6.6044    -3.1661    84.4464 C.ar       1          -0.1084
     13 C10         7.9020    -3.4998    84.8054 C.ar       1           0.1202
     14 O1          8.9395    -2.7126    84.4172 O.3        1          -0.4899
     15 C11         8.1385    -4.6360    85.5661 C.ar       1          -0.1323
     16 C12         8.5451    -7.5693    88.6432 C.3        1          -0.0114
     17 C13         7.2288    -8.1119    89.2034 C.3        1          -0.1736
     18 C14         5.0828    -7.6603    91.9613 C.ar       1           0.4542
     19 C15         5.8966    -8.5005    92.7101 C.ar       1          -0.2386
     20 C16         5.6693    -8.6165    94.0772 C.ar       1           0.3206
     21 N3          6.4640    -9.4490    94.8655 N.am       1          -0.6648
     22 C17         6.6786    -9.1463    96.1612 C.2        1           0.5754
     23 O2          6.1798    -8.1478    96.6429 O.2        1          -0.4909
     24 C18         7.5207   -10.0282    96.9965 C.ar       1          -0.1568
     25 C19         7.6328   -11.3858    96.6907 C.ar       1          -0.0487
     26 C20         8.4208   -12.2032    97.4739 C.ar       1          -0.0827
     27 C21         8.5431   -13.6689    97.1454 C.3        1          -0.1249
     28 C22         9.0997   -11.6804    98.5605 C.ar       1          -0.0727
     29 C23         8.9927   -10.3361    98.8693 C.ar       1          -0.1173
     30 C24         8.2120    -9.5063    98.0909 C.ar       1          -0.0902
     31 C25         4.6266    -7.8790    94.6414 C.ar       1          -0.1692
     32 C26         3.8625    -7.0666    93.8325 C.ar       1           0.1665
     33 N4          4.1070    -6.9743    92.5379 N.ar       1          -0.5186
     34 H2          3.5549    -6.3912    91.9938 H          1           0.4380
     35 H3          3.3578    -8.2256    90.1994 H          1           0.0792
     36 H4          3.9750    -7.0129    89.0518 H          1           0.1001
     37 H5          4.5831    -8.6846    88.9927 H          1           0.1090
     38 H6          7.2458    -6.8316    90.9388 H          1           0.1179
     39 H7          5.6872    -5.9835    88.4518 H          1           0.1324
     40 H8          5.9549    -4.9945    89.9086 H          1           0.1226
     41 H9          7.5716    -4.4030    88.1234 H          1           0.1433
     42 H10         8.4028    -5.1025    89.5325 H          1           0.1476
     43 H11         7.7597    -7.4527    86.1401 H          1           0.1359
     44 H12         6.4019    -7.0246    87.2083 H          1           0.1458
     45 H13         4.9657    -5.7283    85.9040 H          1           0.1370
     46 H14         4.5409    -3.7090    84.5627 H          1           0.1453
     47 H15         6.4174    -2.2803    83.8575 H          1           0.1459
     48 H16         9.8042    -3.0264    84.7150 H          1           0.4001
     49 H17         9.1475    -4.8954    85.8507 H          1           0.1332
     50 H18         9.0071    -8.3244    88.0072 H          1           0.1262
     51 H19         9.2177    -7.3287    89.4665 H          1           0.1420
     52 H20         7.4247    -9.0098    89.7895 H          1           0.1247
     53 H21         6.5543    -8.3522    88.3816 H          1           0.1022
     54 H22         6.6936    -9.0555    92.2380 H          1           0.1815
     55 H23         6.8619   -10.2457    94.4812 H          1           0.4315
     56 H24         7.1035   -11.7951    95.8430 H          1           0.1409
     57 H25         9.2019   -14.1496    97.8684 H          1           0.0813
     58 H26         7.5581   -14.1338    97.1861 H          1           0.0766
     59 H27         8.9576   -13.7834    96.1438 H          1           0.0737
     60 H28         9.7157   -12.3246    99.1704 H          1           0.1385
     61 H29         9.5246    -9.9344    99.7192 H          1           0.1386
     62 H30         8.1328    -8.4562    98.3304 H          1           0.1232
     63 H31         4.4211    -7.9447    95.6997 H          1           0.1963
     64 H32         3.0545    -6.4943    94.2637 H          1           0.2158
@<TRIPOS>BOND
     1    1    2 1
     2    1   35 1
     3    1   36 1
     4    1   37 1
     5    2    3 1
     6    2   18 1
     7    3   17 1
     8    3    4 1
     9    3   38 1
    10    4    5 1
    11    4   39 1
    12    4   40 1
    13    5    6 1
    14    5   41 1
    15    5   42 1
    16    6    7 1
    17    6    8 1
    18    6   16 1
    19    8    9 1
    20    8   43 1
    21    8   44 1
    22    9   15 ar
    23    9   10 ar
    24   10   11 ar
    25   10   45 1
    26   11   12 ar
    27   11   46 1
    28   12   13 ar
    29   12   47 1
    30   13   14 1
    31   13   15 ar
    32   14   48 1
    33   15   49 1
    34   16   17 1
    35   16   50 1
    36   16   51 1
    37   17   52 1
    38   17   53 1
    39   18   33 ar
    40   18   19 ar
    41   19   20 ar
    42   19   54 1
    43   20   21 1
    44   20   31 ar
    45   21   22 am
    46   21   55 1
    47   22   23 2
    48   22   24 1
    49   24   30 ar
    50   24   25 ar
    51   25   26 ar
    52   25   56 1
    53   26   27 1
    54   26   28 ar
    55   27   57 1
    56   27   58 1
    57   27   59 1
    58   28   29 ar
    59   28   60 1
    60   29   30 ar
    61   29   61 1
    62   30   62 1
    63   31   32 ar
    64   31   63 1
    65   32   33 ar
    66   32   64 1
    67   33   34 1
##########                 Name:              T538593
##########          Protonation:                   74
##########               SMILES:   C[NH+]1CCN(CC1)CCC[NH2+]Cc2ccc(cc2)Nc3nccc(n3)Nc4ccc(cc4)Oc5ccccc5
##########            Long Name:   propyl-[[4-[[4-(4-phenoxyanilino)pyrimidin-2-yl]amino]phenyl]methyl]ammonium
##########          FlexRecCode: 1
##########               Number:                  322
##########   Ligand Source File: /raidb/db2/rgc/tcams/tcams-0001808.db2.gz
##########           GlobalRank: 78
##########                 Rank:                    1
##########               Setnum:                   92
##########             Matchnum:                 2766
##########                Cloud:                    1
##########        Electrostatic:           -64.942650
##########        Van der Waals:           -24.686865
##########  Ligand Polar Desolv:            24.328257
########## Ligand Apolar Desolv:            -3.609357
##########      Internal Energy:             0.000000
##########      Receptor Energy: 0.0
########## Receptor Desolvation:             0.000000
########## Receptor Hydrophobic:             0.000000
##########         Total Energy: -68.91
##########        Ligand Charge:             2.000000
##########            Arbitrary:    +999.9990
##########     heavy atom count:   39
##########           pose count:    1
##########        Ligand Energy:             0.000000
# num electro vdwattr vdwrepu polsolv apolsol rdesolv rhydroe totalscore fullpol fullapo
#   1    2.09   -3.02    1.46   -1.34   -0.28    0.00    0.00      -1.08   -2.20   -0.45
#   2   15.90   -2.53    1.68   -7.54    0.30    0.00    0.00       7.80  -14.51    0.57
#   3  -27.23   -0.20    0.12    9.08    0.26    0.00    0.00     -17.96   19.46    0.56
#   4    0.18   -2.10    0.90    0.19   -0.24    0.00    0.00      -1.08    0.34   -0.43
#   5   -0.86   -1.06    0.14    0.25   -0.17    0.00    0.00      -1.71    0.57   -0.39
#   6   12.66   -0.82    0.03   -6.05    0.94    0.00    0.00       6.77  -20.48    3.19
#   7   -1.05   -0.81    0.06    0.60   -0.15    0.00    0.00      -1.34    1.56   -0.38
#   8    3.24   -1.02    0.12   -2.75   -0.10    0.00    0.00      -0.51   -5.90   -0.22
#   9    0.17   -0.81    0.08    0.23   -0.17    0.00    0.00      -0.50    0.54   -0.40
#  10    8.06   -0.55    0.02   -5.41    0.18    0.00    0.00       2.30  -21.90    0.73
#  11   -8.78   -0.01    0.00    2.20    0.06    0.00    0.00      -6.53   20.67    0.57
#  12   -6.03   -0.01    0.00    2.02    0.05    0.00    0.00      -3.96   21.25    0.57
#  13   -0.48   -0.43    0.02    0.85   -0.11    0.00    0.00      -0.15    3.25   -0.42
#  14    1.32   -0.39    0.01   -0.59   -0.06    0.00    0.00       0.29   -3.90   -0.37
#  15    0.43   -0.55    0.04   -0.37   -0.09    0.00    0.00      -0.54   -1.95   -0.45
#  16    0.22   -0.80    0.23   -0.75   -0.08    0.00    0.00      -1.18   -3.77   -0.41
#  17   -0.48   -0.44    0.03    0.27   -0.11    0.00    0.00      -0.72    1.69   -0.68
#  18    1.13   -0.59    0.05   -1.68    0.21    0.00    0.00      -0.88   -8.52    1.07
#  19   -1.40   -0.58    0.06    1.08   -0.89    0.00    0.00      -1.72    5.79   -4.73
#  20    1.29   -0.49    0.03   -1.20    0.22    0.00    0.00      -0.16   -6.98    1.28
#  21   -0.58   -0.53    0.03    0.52   -0.18    0.00    0.00      -0.74    2.81   -0.98
#  22    1.16   -0.56    0.04   -0.74   -0.07    0.00    0.00      -0.17   -3.98   -0.37
#  23   -4.08   -0.56    0.04    0.73   -0.38    0.00    0.00      -4.26    3.89   -2.03
#  24   13.15   -0.74    0.06   -1.34    0.23    0.00    0.00      11.36   -6.16    1.05
#  25   -2.30   -0.60    0.03    0.27   -0.14    0.00    0.00      -2.74    1.27   -0.65
#  26    1.15   -0.31    0.01   -0.12   -0.05    0.00    0.00       0.68   -1.00   -0.46
#  27    0.91   -0.31    0.01   -0.16   -0.06    0.00    0.00       0.39   -1.21   -0.43
#  28   -1.17   -0.67    0.05    0.08   -0.08    0.00    0.00      -1.80    0.32   -0.31
#  29    0.68   -0.75    0.09   -0.32    0.12    0.00    0.00      -0.17   -1.29    0.47
#  30   -0.16   -0.71    0.15    0.05   -0.04    0.00    0.00      -0.72    0.23   -0.21
#  31    0.18   -0.34    0.02   -0.11   -0.05    0.00    0.00      -0.30   -0.95   -0.44
#  32    0.12   -0.24    0.01   -0.08   -0.05    0.00    0.00      -0.25   -0.87   -0.47
#  33    0.16   -0.36    0.01   -0.15   -0.07    0.00    0.00      -0.40   -1.04   -0.47
#  34    0.21   -0.68    0.07   -0.19   -0.10    0.00    0.00      -0.69   -0.84   -0.47
#  35    0.30   -1.05    0.27   -0.22   -0.11    0.00    0.00      -0.80   -0.89   -0.46
#  36    2.97   -1.32    0.22   -0.37   -0.17    0.00    0.00       1.34   -1.02   -0.46
#  37    3.05   -1.09    0.10   -0.35   -0.12    0.00    0.00       1.59   -1.00   -0.34
#  38    2.41   -0.63    0.05   -1.18    0.43    0.00    0.00       1.08   -5.70    2.07
#  39    0.78   -0.24    0.00   -0.40   -0.04    0.00    0.00       0.10   -4.19   -0.46
#  40    0.35   -0.32    0.01   -0.22   -0.05    0.00    0.00      -0.24   -1.84   -0.45
#  41   -0.42   -0.53    0.04    0.11   -0.10    0.00    0.00      -0.91    0.41   -0.38
#  42    0.12   -0.96    0.15    0.02   -0.17    0.00    0.00      -0.84    0.06   -0.43
#  43   -3.30   -1.03    1.63    3.13   -0.17    0.00    0.00       0.26    5.15   -0.28
#  44   -4.74   -1.64    2.52    2.93   -0.18    0.00    0.00      -1.11    4.57   -0.28
#  45   -4.47   -1.85    2.62    2.96   -0.11    0.00    0.00      -0.85    4.19   -0.15
#  46   -4.12   -1.48    3.75    2.42   -0.12    0.00    0.00       0.44    5.53   -0.28
#  47   -5.74   -0.98    0.47    2.99   -0.16    0.00    0.00      -3.43    5.11   -0.28
#  48   -2.10   -0.39    0.06    0.79   -0.08    0.00    0.00      -1.71    2.25   -0.22
#  49   -5.59   -0.48    0.24    0.93   -0.09    0.00    0.00      -5.00    2.78   -0.28
#  50   -0.62   -0.25    0.02    0.49   -0.07    0.00    0.00      -0.43    1.89   -0.28
#  51   -2.20   -0.45    0.14    0.80   -0.09    0.00    0.00      -1.81    2.47   -0.28
#  52   -2.04   -0.62    0.51    1.69   -0.13    0.00    0.00      -0.59    3.67   -0.28
#  53   -2.25   -0.35    0.04    1.85   -0.09    0.00    0.00      -0.79    4.73   -0.22
#  54   -1.04   -0.41    0.15    2.65   -0.11    0.00    0.00       1.24    6.96   -0.28
#  55   -3.89   -0.41    0.22    2.30   -0.10    0.00    0.00      -1.89    6.32   -0.28
#  56   -0.41   -0.22    0.04    1.62   -0.06    0.00    0.00       0.97    7.53   -0.28
#  57   -1.70   -0.16    0.01    1.42   -0.06    0.00    0.00      -0.49    7.03   -0.28
#  58   -1.38   -0.13    0.01    0.72   -0.03    0.00    0.00      -0.81    5.83   -0.28
#  59   -0.25   -0.28    0.15    0.33   -0.04    0.00    0.00      -0.09    1.68   -0.19
#  60   -0.61   -0.01    0.00    0.79    0.08    0.00    0.00       0.26    5.70    0.60
#  61   -0.48   -0.14    0.01    0.51   -0.03    0.00    0.00      -0.12    4.20   -0.28
#  62   -0.76   -0.18    0.04    0.25   -0.02    0.00    0.00      -0.67    1.92   -0.18
#  63  -12.04   -0.02    0.00    0.84    0.12    0.00    0.00     -11.10    4.28    0.60
#  64   -1.20   -0.03    0.00    0.06   -0.01    0.00    0.00      -1.18    1.63   -0.28
#  65   -0.28   -0.03    0.00    0.03   -0.01    0.00    0.00      -0.29    0.74   -0.22
#  66   -0.13   -0.05    0.00    0.04   -0.01    0.00    0.00      -0.14    1.00   -0.28
#  67   -0.09   -0.02    0.00    0.04   -0.01    0.00    0.00      -0.08    1.66   -0.28
#  68   -0.15   -0.06    0.00    0.09   -0.01    0.00    0.00      -0.14    1.67   -0.28
#  69   -0.29   -0.17    0.02    0.25   -0.05    0.00    0.00      -0.23    1.52   -0.28
#  70   -0.46   -0.43    0.28    0.23   -0.08    0.00    0.00      -0.46    0.84   -0.28
#  71   -5.34   -0.77    0.67    0.60   -0.10    0.00    0.00      -4.94    1.60   -0.28
#  72   -4.82   -0.36    0.06    0.68   -0.07    0.00    0.00      -4.50    1.99   -0.20
#  73   -0.63   -0.03    0.00    0.07   -0.01    0.00    0.00      -0.59    2.07   -0.28
#  74   -0.35   -0.09    0.01    0.60   -0.03    0.00    0.00       0.14    6.69   -0.28
#  75   -0.81   -0.14    0.01    0.30   -0.03    0.00    0.00      -0.67    2.55   -0.22
#  76   -3.53   -0.19    0.04    0.75   -0.03    0.00    0.00      -2.97    5.09   -0.21
#  77   -3.56   -0.57    0.40    1.68   -0.09    0.00    0.00      -2.14    5.37   -0.28
#  78   -2.93   -0.25    0.03    1.57   -0.07    0.00    0.00      -1.65    6.39   -0.28

@<TRIPOS>MOLECULE
          T538593        74
   78    82     0     0     0



@<TRIPOS>ATOM
      1 C1          8.0495    -4.3543    95.6843 C.3        1          -0.0585
      2 N1          6.8641    -4.8419    94.9667 N.4        1          -0.3860
      3 H1          6.9696    -4.6589    93.9801 H          1           0.4355
      4 C2          5.6697    -4.1489    95.4677 C.3        1          -0.0048
      5 C3          4.4363    -4.6455    94.7104 C.3        1           0.0249
      6 N2          4.2987    -6.0954    94.9055 N.3        1          -0.5384
      7 C4          4.0319    -6.4140    96.3146 C.3        1           0.0565
      8 C5          2.5507    -6.1808    96.6185 C.3        1          -0.1511
      9 C6          1.6982    -7.0808    95.7220 C.3        1          -0.0096
     10 N3          1.9649    -6.7623    94.3129 N.4        1          -0.5087
     11 H2          1.7336    -5.7961    94.1369 H          1           0.4288
     12 H3          2.9417    -6.9161    94.1125 H          1           0.4261
     13 C7          1.1462    -7.6264    93.4520 C.3        1           0.0530
     14 C8          1.4198    -7.2996    92.0066 C.ar       1          -0.2065
     15 C9          0.6701    -6.3313    91.3644 C.ar       1          -0.0692
     16 C10         0.9183    -6.0293    90.0397 C.ar       1          -0.1310
     17 C11         1.9222    -6.6995    89.3527 C.ar       1           0.2187
     18 N4          2.1764    -6.3960    88.0117 N.pl3      1          -0.6385
     19 C12         3.4559    -6.5373    87.5001 C.ar       1           0.5869
     20 N5          3.6098    -6.8347    86.2180 N.ar       1          -0.5921
     21 C13         4.8172    -6.9775    85.6922 C.ar       1           0.2078
     22 C14         5.9284    -6.8131    86.4963 C.ar       1          -0.3193
     23 C15         5.7352    -6.5001    87.8436 C.ar       1           0.4741
     24 N6          6.8207    -6.3256    88.6877 N.pl3      1          -0.6409
     25 C16         8.1226    -6.4629    88.1914 C.ar       1           0.1202
     26 C17         8.7454    -7.7040    88.2090 C.ar       1          -0.1007
     27 C18        10.0294    -7.8388    87.7189 C.ar       1          -0.1625
     28 C19        10.6972    -6.7347    87.2094 C.ar       1           0.1153
     29 O1         11.9616    -6.8680    86.7274 O.3        1          -0.2550
     30 C20        12.2269    -7.9254    85.9165 C.ar       1           0.0756
     31 C21        13.3752    -8.6799    86.1115 C.ar       1          -0.1316
     32 C22        13.6423    -9.7546    85.2859 C.ar       1          -0.1049
     33 C23        12.7671   -10.0788    84.2656 C.ar       1          -0.1138
     34 C24        11.6226    -9.3282    84.0688 C.ar       1          -0.1038
     35 C25        11.3474    -8.2563    84.8954 C.ar       1          -0.1212
     36 C26        10.0753    -5.4945    87.1910 C.ar       1          -0.1172
     37 C27         8.7896    -5.3593    87.6758 C.ar       1          -0.1160
     38 N7          4.4949    -6.3666    88.3033 N.ar       1          -0.6048
     39 C28         2.6735    -7.6717    90.0007 C.ar       1          -0.1571
     40 C29         2.4240    -7.9647    91.3270 C.ar       1          -0.0663
     41 C30         5.4956    -6.7992    94.4239 C.3        1           0.0181
     42 C31         6.7215    -6.2877    95.1835 C.3        1          -0.0045
     43 H4          7.9358    -4.5518    96.7501 H          1           0.1282
     44 H5          8.9361    -4.8678    95.3123 H          1           0.1295
     45 H6          8.1563    -3.2816    95.5229 H          1           0.1170
     46 H7          5.5499    -4.3541    96.5314 H          1           0.1410
     47 H8          5.7819    -3.0754    95.3152 H          1           0.1409
     48 H9          3.5480    -4.1411    95.0908 H          1           0.0667
     49 H10         4.5504    -4.4303    93.6479 H          1           0.1264
     50 H11         4.2819    -7.4579    96.5047 H          1           0.0572
     51 H12         4.6393    -5.7728    96.9534 H          1           0.1002
     52 H13         2.3528    -6.4172    97.6640 H          1           0.1018
     53 H14         2.3006    -5.1370    96.4285 H          1           0.0869
     54 H15         1.9482    -8.1247    95.9121 H          1           0.1320
     55 H16         0.6429    -6.9147    95.9385 H          1           0.1358
     56 H17         1.3961    -8.6703    93.6422 H          1           0.1348
     57 H18         0.0910    -7.4601    93.6687 H          1           0.1367
     58 H19        -0.1107    -5.8108    91.8991 H          1           0.1313
     59 H20         0.3320    -5.2733    89.5386 H          1           0.1745
     60 H21         1.4567    -6.0865    87.4396 H          1           0.4285
     61 H22         4.9317    -7.2201    84.6461 H          1           0.1760
     62 H23         6.9238    -6.9244    86.0924 H          1           0.1602
     63 H24         6.6783    -6.1084    89.6222 H          1           0.4200
     64 H25         8.2260    -8.5635    88.6063 H          1           0.1337
     65 H26        10.5139    -8.8038    87.7326 H          1           0.1375
     66 H27        14.0593    -8.4268    86.9078 H          1           0.1300
     67 H28        14.5358   -10.3422    85.4372 H          1           0.1322
     68 H29        12.9782   -10.9191    83.6211 H          1           0.1314
     69 H30        10.9410    -9.5830    83.2707 H          1           0.1340
     70 H31        10.4509    -7.6733    84.7443 H          1           0.1329
     71 H32        10.5958    -4.6355    86.7942 H          1           0.1418
     72 H33         8.3041    -4.3947    87.6577 H          1           0.1408
     73 H34         3.4547    -8.1948    89.4691 H          1           0.1365
     74 H35         3.0106    -8.7173    91.8328 H          1           0.1308
     75 H36         5.3819    -7.8697    94.5950 H          1           0.0660
     76 H37         5.6235    -6.6121    93.3578 H          1           0.1202
     77 H38         7.6131    -6.7991    94.8205 H          1           0.1400
     78 H39         6.5978    -6.4849    96.2483 H          1           0.1387
@<TRIPOS>BOND
     1    1    2 1
     2    1   43 1
     3    1   44 1
     4    1   45 1
     5    2    3 1
     6    2   42 1
     7    2    4 1
     8    4    5 1
     9    4   46 1
    10    4   47 1
    11    5    6 1
    12    5   48 1
    13    5   49 1
    14    6    7 1
    15    6   41 1
    16    7    8 1
    17    7   50 1
    18    7   51 1
    19    8    9 1
    20    8   52 1
    21    8   53 1
    22    9   10 1
    23    9   54 1
    24    9   55 1
    25   10   11 1
    26   10   12 1
    27   10   13 1
    28   13   14 1
    29   13   56 1
    30   13   57 1
    31   14   40 ar
    32   14   15 ar
    33   15   16 ar
    34   15   58 1
    35   16   17 ar
    36   16   59 1
    37   17   18 1
    38   17   39 ar
    39   18   19 1
    40   18   60 1
    41   19   38 ar
    42   19   20 ar
    43   20   21 ar
    44   21   22 ar
    45   21   61 1
    46   22   23 ar
    47   22   62 1
    48   23   24 1
    49   23   38 ar
    50   24   25 1
    51   24   63 1
    52   25   37 ar
    53   25   26 ar
    54   26   27 ar
    55   26   64 1
    56   27   28 ar
    57   27   65 1
    58   28   29 1
    59   28   36 ar
    60   29   30 1
    61   30   35 ar
    62   30   31 ar
    63   31   32 ar
    64   31   66 1
    65   32   33 ar
    66   32   67 1
    67   33   34 ar
    68   33   68 1
    69   34   35 ar
    70   34   69 1
    71   35   70 1
    72   36   37 ar
    73   36   71 1
    74   37   72 1
    75   39   40 ar
    76   39   73 1
    77   40   74 1
    78   41   42 1
    79   41   75 1
    80   41   76 1
    81   42   77 1
    82   42   78 1
##########                 Name:              T539724
##########          Protonation:                   95
##########               SMILES:   c1cc(c(cc1/C=C/C(=O)NCCCCCC[NH+]2CCCN(CC2)C(=O)Nc3ccc(c(c3)Cl)F)Cl)Cl
##########            Long Name:   ,4-dichlorophenyl)prop-2-enoyl]amino]hexyl]-1,4-diazepan-4-ium-1-carboxamide
##########          FlexRecCode: 1
##########               Number:                  151
##########   Ligand Source File: /raidb/db2/rgc/tcams/tcams-0001993.db2.gz
##########           GlobalRank: 79
##########                 Rank:                    1
##########               Setnum:                  133
##########             Matchnum:                 2334
##########                Cloud:                    1
##########        Electrostatic:           -37.973797
##########        Van der Waals:           -33.828892
##########  Ligand Polar Desolv:             7.838717
########## Ligand Apolar Desolv:            -4.913092
##########      Internal Energy:             0.000000
##########      Receptor Energy: 0.0
########## Receptor Desolvation:             0.000000
########## Receptor Hydrophobic:             0.000000
##########         Total Energy: -68.88
##########        Ligand Charge:             1.000000
##########            Arbitrary:    +999.9990
##########     heavy atom count:   37
##########           pose count:    1
##########        Ligand Energy:             0.000000
# num electro vdwattr vdwrepu polsolv apolsol rdesolv rhydroe totalscore fullpol fullapo
#   1    0.77   -1.94    1.71   -0.22   -0.28    0.00    0.00       0.04   -0.36   -0.47
#   2   -0.95   -2.04    0.60    0.00   -0.19    0.00    0.00      -2.57    0.00   -0.34
#   3    1.56   -2.05    0.72   -0.58   -0.24    0.00    0.00      -0.59   -1.12   -0.47
#   4    1.24   -1.59    0.28   -0.53   -0.21    0.00    0.00      -0.82   -1.17   -0.46
#   5   -0.97   -1.43    0.19    0.84   -0.25    0.00    0.00      -1.63    2.28   -0.68
#   6    3.39   -1.44    0.30   -3.82    0.56    0.00    0.00      -1.01  -11.35    1.67
#   7   -5.41   -1.38    0.31    3.86   -0.69    0.00    0.00      -3.32   11.37   -2.02
#   8    4.15   -1.96    0.46   -2.98    0.14    0.00    0.00      -0.19   -6.91    0.32
#   9    9.23   -0.83    0.06   -3.95    0.41    0.00    0.00       4.92  -13.88    1.44
#  10   -2.01   -0.61    0.03    0.68   -0.15    0.00    0.00      -2.06    2.08   -0.46
#  11    5.30   -1.00    0.13   -1.88   -0.10    0.00    0.00       2.45   -4.43   -0.24
#  12    0.42   -1.10    0.29   -0.12   -0.14    0.00    0.00      -0.64   -0.31   -0.36
#  13   13.39   -1.53    1.06   -3.14    0.05    0.00    0.00       9.83  -11.33    0.18
#  14  -22.67   -0.12    0.03    4.46    0.12    0.00    0.00     -18.17   16.55    0.45
#  15    0.59   -1.09    0.34    0.02   -0.10    0.00    0.00      -0.26    0.05   -0.34
#  16    3.82   -0.84    0.20   -1.15   -0.05    0.00    0.00       1.97   -4.21   -0.20
#  17    0.51   -0.81    0.15   -0.80   -0.06    0.00    0.00      -1.01   -2.84   -0.22
#  18    0.42   -0.51    0.06   -0.51   -0.05    0.00    0.00      -0.59   -2.37   -0.22
#  19    0.74   -0.16    0.00   -0.20   -0.02    0.00    0.00       0.36   -1.97   -0.22
#  20   -0.27   -0.09    0.00    0.07   -0.03    0.00    0.00      -0.32    1.24   -0.43
#  21    1.00   -0.08    0.00   -0.32    0.10    0.00    0.00       0.70   -7.47    2.33
#  22   -0.30   -0.14    0.00    0.22   -0.04    0.00    0.00      -0.25    3.45   -0.65
#  23    0.19   -0.21    0.01   -0.09    0.04    0.00    0.00      -0.06   -0.91    0.39
#  24    0.08   -0.18    0.01   -0.13   -0.03    0.00    0.00      -0.25   -1.71   -0.43
#  25    0.00   -0.76    0.43   -0.03   -0.06    0.00    0.00      -0.43   -0.25   -0.44
#  26    0.01   -0.62    0.14   -0.07   -0.07    0.00    0.00      -0.61   -0.41   -0.41
#  27   -0.01   -1.15    0.37   -0.15   -0.11    0.00    0.00      -1.06   -0.60   -0.43
#  28    0.02   -0.93    0.10   -0.09   -0.09    0.00    0.00      -1.00   -0.29   -0.30
#  29    0.01   -3.98    2.16   -0.11   -0.41    0.00    0.00      -2.34   -0.26   -0.95
#  30    0.02   -0.79    0.12   -0.06   -0.07    0.00    0.00      -0.78   -0.25   -0.30
#  31    0.03   -2.21    0.52   -0.07   -0.28    0.00    0.00      -2.00   -0.22   -0.95
#  32    0.09   -0.56    0.11   -0.09   -0.06    0.00    0.00      -0.51   -0.65   -0.46
#  33    0.04   -0.32    0.02   -0.07   -0.06    0.00    0.00      -0.39   -0.58   -0.45
#  34    0.92   -0.38    0.02   -0.07   -0.08    0.00    0.00       0.41   -0.35   -0.39
#  35   -2.07   -0.47    0.03    0.56   -0.10    0.00    0.00      -2.05    2.30   -0.42
#  36    0.44   -1.54    0.20   -0.36   -0.17    0.00    0.00      -1.43   -0.86   -0.39
#  37    0.42   -1.64    0.20   -0.27   -0.17    0.00    0.00      -1.45   -0.48   -0.30
#  38    0.32   -5.91    3.19   -0.22   -0.59    0.00    0.00      -3.20   -0.37   -0.97
#  39   -2.92   -0.48    0.11    0.94   -0.13    0.00    0.00      -2.48    2.03   -0.28
#  40   -2.09   -0.26    0.02    1.12   -0.08    0.00    0.00      -1.30    3.91   -0.28
#  41   -1.38   -0.02    0.00    1.90    0.08    0.00    0.00       0.59    9.73    0.41
#  42   -1.66   -0.14    0.00    0.31   -0.02    0.00    0.00      -1.51    2.55   -0.20
#  43   -1.92   -0.27    0.03    0.60   -0.08    0.00    0.00      -1.64    2.15   -0.28
#  44   -4.23   -0.49    0.10    1.82   -0.12    0.00    0.00      -2.91    4.30   -0.28
#  45   -3.86   -0.42    0.17    1.61   -0.09    0.00    0.00      -2.59    4.57   -0.25
#  46   -3.40   -0.17    0.01    0.56   -0.04    0.00    0.00      -3.04    3.10   -0.24
#  47   -6.33   -0.71    0.38    2.39   -0.09    0.00    0.00      -4.35    5.81   -0.21
#  48   -2.25   -0.13    0.01    0.70   -0.04    0.00    0.00      -1.71    5.07   -0.27
#  49   -4.92   -0.86    0.71    1.58   -0.10    0.00    0.00      -3.59    4.12   -0.27
#  50   -3.54   -0.65    0.50    0.92   -0.06    0.00    0.00      -2.83    3.29   -0.21
#  51   -1.62   -0.09    0.00    0.27   -0.02    0.00    0.00      -1.45    3.34   -0.28
#  52   -0.21   -0.12    0.01    0.22   -0.04    0.00    0.00      -0.13    1.68   -0.28
#  53   -0.66   -0.72    0.49    0.61   -0.10    0.00    0.00      -0.39    1.62   -0.28
#  54   -0.21   -0.17    0.02    0.18   -0.04    0.00    0.00      -0.21    1.24   -0.28
#  55   -0.62   -0.22    0.04    0.22   -0.05    0.00    0.00      -0.63    1.21   -0.28
#  56   -0.29   -0.04    0.00    0.07   -0.01    0.00    0.00      -0.29    1.37   -0.28
#  57   -0.71   -0.04    0.00    0.05   -0.01    0.00    0.00      -0.71    1.37   -0.28
#  58   -0.21   -0.03    0.00    0.01   -0.01    0.00    0.00      -0.24    0.36   -0.28
#  59   -0.12   -0.03    0.00    0.01   -0.01    0.00    0.00      -0.14    0.35   -0.28
#  60   -0.42    0.00    0.00    0.13    0.01    0.00    0.00      -0.29    6.18    0.56
#  61   -0.07   -0.02    0.00    0.05    0.00    0.00    0.00      -0.04    2.36   -0.21
#  62    0.05   -0.52    1.03    0.12   -0.04    0.00    0.00       0.64    0.82   -0.26
#  63    0.05   -0.42    0.26    0.53   -0.06    0.00    0.00       0.36    1.99   -0.21
#  64   -0.15   -0.09    0.01    0.11   -0.02    0.00    0.00      -0.14    1.32   -0.28
#  65   -0.10   -0.03    0.00    0.05   -0.01    0.00    0.00      -0.08    1.88   -0.28
#  66   -1.71   -0.10    0.00    0.24   -0.03    0.00    0.00      -1.59    2.62   -0.28
#  67   -2.19   -0.07    0.00    0.39   -0.02    0.00    0.00      -1.89    6.01   -0.26
#  68   -2.83   -0.23    0.04    1.02   -0.06    0.00    0.00      -2.06    4.87   -0.28
#  69   -1.39   -0.13    0.01    0.13   -0.03    0.00    0.00      -1.41    1.08   -0.24
#  70   -0.54   -0.36    0.07    0.35   -0.07    0.00    0.00      -0.55    1.14   -0.22

@<TRIPOS>MOLECULE
          T539724        95
   70    72     0     0     0



@<TRIPOS>ATOM
      1 F1          9.7704   -11.8635    99.3405 F          1          -0.1195
      2 C1          8.9399   -11.2786    98.4499 C.ar       1           0.1048
      3 C2          8.6705    -9.9236    98.5421 C.ar       1          -0.1179
      4 C3          7.8214    -9.3236    97.6329 C.ar       1          -0.1071
      5 C4          7.2375   -10.0798    96.6252 C.ar       1           0.1486
      6 N1          6.3766    -9.4726    95.7023 N.am       1          -0.6763
      7 C5          5.6401    -8.4051    96.0690 C.2        1           0.7012
      8 O1          5.2784    -8.2836    97.2234 O.2        1          -0.5491
      9 N2          5.3047    -7.4722    95.1558 N.am       1          -0.6358
     10 C6          4.4992    -6.2826    95.5335 C.3        1           0.0947
     11 C7          4.8184    -4.9402    94.9195 C.3        1          -0.1570
     12 C8          4.0822    -4.8266    93.5687 C.3        1          -0.0117
     13 N3          4.6473    -5.6635    92.5745 N.4        1          -0.3665
     14 H1          5.6127    -5.3995    92.4463 H          1           0.4174
     15 C9          3.9337    -5.4315    91.3116 C.3        1          -0.0199
     16 C10         4.7966    -5.9106    90.1427 C.3        1          -0.1482
     17 C11         4.0534    -5.6690    88.8273 C.3        1          -0.1173
     18 C12         4.9165    -6.1481    87.6584 C.3        1          -0.1175
     19 C13         5.2029    -7.6428    87.8151 C.3        1          -0.1337
     20 C14         3.8831    -8.4167    87.8254 C.3        1           0.1180
     21 N4          4.1574    -9.8479    87.9756 N.am       1          -0.7303
     22 C15         4.2275   -10.3953    89.2052 C.2        1           0.5491
     23 O2          4.0631    -9.7006    90.1908 O.2        1          -0.5395
     24 C16         4.5016   -11.8254    89.3552 C.2        1          -0.2131
     25 C17         4.0064   -12.4995    90.4129 C.2        1          -0.0110
     26 C18         4.2820   -13.9372    90.5637 C.ar       1          -0.0639
     27 C19         3.4671   -14.7267    91.3819 C.ar       1          -0.0832
     28 C20         3.7311   -16.0736    91.5181 C.ar       1          -0.0341
     29 Cl1         2.7213   -17.0561    92.5324 Cl         1          -0.0404
     30 C21         4.8013   -16.6446    90.8461 C.ar       1          -0.0212
     31 Cl2         5.1269   -18.3406    91.0228 Cl         1          -0.0372
     32 C22         5.6113   -15.8681    90.0341 C.ar       1          -0.0983
     33 C23         5.3560   -14.5215    89.8852 C.ar       1          -0.0757
     34 C24         4.5950    -7.0967    92.8769 C.3        1          -0.0469
     35 C25         5.7330    -7.5956    93.7392 C.3        1           0.1144
     36 C26         7.5085   -11.4382    96.5333 C.ar       1          -0.0852
     37 C27         8.3630   -12.0342    97.4419 C.ar       1          -0.0574
     38 Cl3         8.7083   -13.7314    97.3238 Cl         1          -0.0339
     39 H2          9.1246    -9.3353    99.3258 H          1           0.1556
     40 H3          7.6113    -8.2668    97.7059 H          1           0.1446
     41 H4          6.3107    -9.8202    94.7992 H          1           0.4106
     42 H5          3.4580    -6.5075    95.3025 H          1           0.0926
     43 H6          4.5703    -6.1712    96.6154 H          1           0.0950
     44 H7          4.4857    -4.1444    95.5858 H          1           0.1283
     45 H8          5.8933    -4.8574    94.7586 H          1           0.0948
     46 H9          3.0377    -5.1038    93.7114 H          1           0.1284
     47 H10         4.1284    -3.7923    93.2274 H          1           0.1394
     48 H11         2.9935    -5.9829    91.3190 H          1           0.1338
     49 H12         3.7294    -4.3667    91.2000 H          1           0.1305
     50 H13         5.7368    -5.3592    90.1354 H          1           0.0872
     51 H14         5.0009    -6.9754    90.2543 H          1           0.0890
     52 H15         3.1132    -6.2203    88.8347 H          1           0.0761
     53 H16         3.8493    -4.6040    88.7157 H          1           0.0751
     54 H17         4.3870    -5.9759    86.7213 H          1           0.0706
     55 H18         5.8567    -5.5967    87.6510 H          1           0.0714
     56 H19         5.8178    -7.9843    86.9824 H          1           0.0729
     57 H20         5.7324    -7.8149    88.7522 H          1           0.0725
     58 H21         3.2683    -8.0752    88.6582 H          1           0.0688
     59 H22         3.3536    -8.2445    86.8883 H          1           0.0690
     60 H23         4.2884   -10.4016    87.1900 H          1           0.4028
     61 H24         5.1004   -12.3406    88.6187 H          1           0.1314
     62 H25         3.4076   -11.9844    91.1494 H          1           0.1443
     63 H26         2.6336   -14.2826    91.9059 H          1           0.1462
     64 H27         6.4429   -16.3194    89.5135 H          1           0.1502
     65 H28         5.9862   -13.9185    89.2484 H          1           0.1473
     66 H29         3.6547    -7.3078    93.3861 H          1           0.1312
     67 H30         4.6054    -7.6484    91.9369 H          1           0.1465
     68 H31         6.6238    -6.9912    93.5681 H          1           0.1029
     69 H32         5.9440    -8.6392    93.5060 H          1           0.1342
     70 H33         7.0553   -12.0279    95.7502 H          1           0.1573
@<TRIPOS>BOND
     1    1    2 1
     2    2   37 ar
     3    2    3 ar
     4    3    4 ar
     5    3   39 1
     6    4    5 ar
     7    4   40 1
     8    5    6 1
     9    5   36 ar
    10    6    7 am
    11    6   41 1
    12    7    8 2
    13    7    9 am
    14    9   35 1
    15    9   10 1
    16   10   11 1
    17   10   42 1
    18   10   43 1
    19   11   12 1
    20   11   44 1
    21   11   45 1
    22   12   13 1
    23   12   46 1
    24   12   47 1
    25   13   14 1
    26   13   15 1
    27   13   34 1
    28   15   16 1
    29   15   48 1
    30   15   49 1
    31   16   17 1
    32   16   50 1
    33   16   51 1
    34   17   18 1
    35   17   52 1
    36   17   53 1
    37   18   19 1
    38   18   54 1
    39   18   55 1
    40   19   20 1
    41   19   56 1
    42   19   57 1
    43   20   21 1
    44   20   58 1
    45   20   59 1
    46   21   22 am
    47   21   60 1
    48   22   23 2
    49   22   24 1
    50   24   25 2
    51   24   61 1
    52   25   26 1
    53   25   62 1
    54   26   33 ar
    55   26   27 ar
    56   27   28 ar
    57   27   63 1
    58   28   29 1
    59   28   30 ar
    60   30   31 1
    61   30   32 ar
    62   32   33 ar
    63   32   64 1
    64   33   65 1
    65   34   35 1
    66   34   66 1
    67   34   67 1
    68   35   68 1
    69   35   69 1
    70   36   37 ar
    71   36   70 1
    72   37   38 1
##########                 Name:              T530319
##########          Protonation:                   23
##########               SMILES:   c1cc2c(c(ccc2)CNc3nc([nH+]c(n3)NCCCc4ccc(cc4)O)N5CC[C@@H](CC5)[NH3+])cc1
##########            Long Name:   no]-4-(1-naphthylmethylamino)-1,3,5-triazin-1-ium-2-yl]-4-piperidyl]ammonium
##########          FlexRecCode: 1
##########               Number:                  299
##########   Ligand Source File: /raidb/db2/rgc/tcams/tcams-0000710.db2.gz
##########           GlobalRank: 81
##########                 Rank:                    1
##########               Setnum:                  188
##########             Matchnum:                 2771
##########                Cloud:                    1
##########        Electrostatic:           -38.174488
##########        Van der Waals:           -32.273018
##########  Ligand Polar Desolv:             6.620736
########## Ligand Apolar Desolv:            -5.041634
##########      Internal Energy:             0.000000
##########      Receptor Energy: 0.0
########## Receptor Desolvation:             0.000000
########## Receptor Hydrophobic:             0.000000
##########         Total Energy: -68.87
##########        Ligand Charge:             2.000000
##########            Arbitrary:    +999.9990
##########     heavy atom count:   36
##########           pose count:    1
##########        Ligand Energy:             0.000000
# num electro vdwattr vdwrepu polsolv apolsol rdesolv rhydroe totalscore fullpol fullapo
#   1   10.53   -0.53    0.03   -8.28    0.19    0.00    0.00       1.94  -31.63    0.74
#   2   -2.92   -0.01    0.00    2.29    0.05    0.00    0.00      -0.59   24.50    0.58
#   3   -7.24   -0.01    0.00    2.82    0.07    0.00    0.00      -4.36   23.34    0.58
#   4  -10.97   -0.02    0.00    5.65    0.14    0.00    0.00      -5.19   23.75    0.58
#   5   -0.41   -0.33    0.01    0.57   -0.06    0.00    0.00      -0.22    2.87   -0.29
#   6    4.78   -1.04    0.30   -2.09   -0.08    0.00    0.00       1.88   -6.61   -0.24
#   7   -3.48   -0.97    0.26    1.00   -0.13    0.00    0.00      -3.31    3.66   -0.48
#   8   11.78   -0.55    0.04   -3.77    0.31    0.00    0.00       7.81  -20.52    1.68
#   9   -1.23   -0.15    0.00    0.28   -0.04    0.00    0.00      -1.14    3.03   -0.47
#  10    1.91   -0.19    0.00   -0.88   -0.03    0.00    0.00       0.82   -7.33   -0.24
#  11  -15.68   -0.66    0.09    4.53   -0.90    0.00    0.00     -12.62   23.50   -4.67
#  12   10.10   -0.54    0.03   -4.07    0.38    0.00    0.00       5.91  -19.61    1.84
#  13   -8.83   -0.67    0.05    4.26   -1.11    0.00    0.00      -6.29   18.54   -4.81
#  14    4.25   -1.04    0.17   -4.30    0.45    0.00    0.00      -0.48  -16.71    1.73
#  15   -0.28   -1.60    1.57    1.46   -0.12    0.00    0.00       1.02    4.52   -0.38
#  16    1.08   -1.34    0.15   -0.59   -0.13    0.00    0.00      -0.83   -1.63   -0.37
#  17    0.98   -1.31    0.11   -0.72   -0.19    0.00    0.00      -1.12   -1.71   -0.45
#  18    2.19   -1.96    0.32   -1.04   -0.25    0.00    0.00      -0.74   -1.98   -0.47
#  19    1.24   -2.02    0.32   -1.07   -0.26    0.00    0.00      -1.78   -1.93   -0.46
#  20    0.68   -1.69    0.39   -0.58   -0.19    0.00    0.00      -1.39   -1.25   -0.40
#  21    0.93   -1.99    0.53   -0.97   -0.25    0.00    0.00      -1.76   -1.79   -0.46
#  22    0.83   -2.03    0.31   -1.06   -0.28    0.00    0.00      -2.24   -1.80   -0.47
#  23    0.69   -1.78    0.23   -1.18   -0.26    0.00    0.00      -2.31   -2.16   -0.47
#  24    0.53   -1.78    0.32   -0.65   -0.19    0.00    0.00      -1.78   -1.52   -0.44
#  25    0.23   -1.55    0.28   -0.39   -0.15    0.00    0.00      -1.58   -1.00   -0.40
#  26    9.52   -0.63    0.04   -4.04    0.41    0.00    0.00       5.30  -19.08    1.96
#  27  -16.43   -0.71    0.08    4.85   -1.03    0.00    0.00     -13.25   22.55   -4.81
#  28   15.93   -0.78    0.05   -5.52    0.44    0.00    0.00      10.12  -21.69    1.72
#  29   -1.90   -0.47    0.01    0.93   -0.11    0.00    0.00      -1.54    3.32   -0.38
#  30    3.18   -0.81    0.08   -1.42   -0.08    0.00    0.00       0.95   -3.79   -0.22
#  31    1.43   -0.61    0.03   -0.62   -0.08    0.00    0.00       0.15   -1.91   -0.23
#  32    2.58   -1.41    0.14   -0.70   -0.15    0.00    0.00       0.46   -1.62   -0.36
#  33    2.09   -2.50    0.66   -0.92   -0.23    0.00    0.00      -0.90   -1.84   -0.46
#  34    3.35   -2.99    0.77   -1.46   -0.28    0.00    0.00      -0.61   -2.44   -0.46
#  35   -2.78   -2.66    0.58    0.11   -0.21    0.00    0.00      -4.95    0.16   -0.31
#  36   11.77   -4.39    3.76   -3.22    0.84    0.00    0.00       8.77   -4.57    1.19
#  37    3.51   -2.53    0.50   -1.43   -0.27    0.00    0.00      -0.23   -2.40   -0.46
#  38    2.65   -2.35    0.71   -0.91   -0.22    0.00    0.00      -0.12   -1.87   -0.46
#  39   17.69   -1.00    0.23   -4.94    0.22    0.00    0.00      12.20  -21.89    0.99
#  40  -13.25   -0.02    0.00    4.06    0.07    0.00    0.00      -9.14   19.08    0.31
#  41   -1.94   -0.09    0.00    0.77   -0.03    0.00    0.00      -1.29    8.40   -0.28
#  42   -3.28   -0.59    0.53    1.16   -0.09    0.00    0.00      -2.27    3.81   -0.28
#  43   -4.18   -0.41    0.11    1.71   -0.09    0.00    0.00      -2.86    5.36   -0.28
#  44   -5.99   -0.98    1.26    0.71   -0.08    0.00    0.00      -5.09    2.19   -0.24
#  45   -1.62   -0.17    0.02    0.68   -0.05    0.00    0.00      -1.14    4.18   -0.28
#  46   -0.87   -0.03    0.00    0.18   -0.01    0.00    0.00      -0.72    5.34   -0.20
#  47   -0.88   -0.03    0.00    0.19   -0.01    0.00    0.00      -0.73    5.82   -0.28
#  48   -0.81   -0.03    0.00    0.25   -0.01    0.00    0.00      -0.60    7.49   -0.28
#  49   -1.36   -0.08    0.00    0.44   -0.03    0.00    0.00      -1.03    4.70   -0.28
#  50   -3.13   -0.01    0.00    1.67    0.09    0.00    0.00      -1.38   10.66    0.58
#  51   -0.21   -0.44    0.38    0.49   -0.06    0.00    0.00       0.17    2.14   -0.24
#  52    0.62   -1.95    9.98    1.01   -0.10    0.00    0.00       9.57    2.79   -0.27
#  53   -2.18   -0.21    0.02    0.77   -0.06    0.00    0.00      -1.67    3.79   -0.28
#  54   -2.39   -0.61    0.27    1.17   -0.14    0.00    0.00      -1.69    2.29   -0.28
#  55   -2.93   -0.53    0.10    0.76   -0.15    0.00    0.00      -2.75    1.43   -0.28
#  56   -1.50   -0.77    1.42    0.64   -0.14    0.00    0.00      -0.35    1.30   -0.28
#  57   -0.29   -0.75    0.36    0.92   -0.16    0.00    0.00       0.08    1.62   -0.28
#  58   -1.26   -0.47    0.12    1.29   -0.14    0.00    0.00      -0.46    2.59   -0.28
#  59    0.02   -0.52    0.17    1.26   -0.08    0.00    0.00       0.85    3.70   -0.23
#  60  -11.35   -0.02    0.00    2.96    0.13    0.00    0.00      -8.28   13.59    0.58
#  61   -1.32   -0.12    0.00    0.59   -0.03    0.00    0.00      -0.88    5.27   -0.27
#  62   -2.04   -0.16    0.00    0.81   -0.04    0.00    0.00      -1.42    5.90   -0.28
#  63   -2.40   -0.31    0.05    0.62   -0.09    0.00    0.00      -2.13    1.93   -0.28
#  64   -2.31   -0.44    0.11    0.54   -0.09    0.00    0.00      -2.20    1.65   -0.28
#  65   -1.20   -0.20    0.03    0.57   -0.05    0.00    0.00      -0.84    3.40   -0.28
#  66   -1.57   -0.15    0.01    0.60   -0.04    0.00    0.00      -1.16    3.74   -0.28
#  67   -2.12   -1.13    1.36    1.72   -0.12    0.00    0.00      -0.29    3.86   -0.28
#  68   -3.06   -0.87    0.31    0.78   -0.17    0.00    0.00      -3.01    1.31   -0.28
#  69   -9.43   -0.08    0.00    3.19    0.76    0.00    0.00      -5.57    5.12    1.22
#  70   -3.31   -0.79    0.40    0.72   -0.17    0.00    0.00      -3.16    1.17   -0.28
#  71   -4.89   -0.96    1.06    1.49   -0.12    0.00    0.00      -3.43    3.52   -0.28

@<TRIPOS>MOLECULE
          T530319        23
   71    75     0     0     0



@<TRIPOS>ATOM
      1 N1          9.8772    -6.4318    87.5958 N.4        1          -0.6362
      2 H1         10.2338    -7.2020    87.0499 H          1           0.4419
      3 H2         10.4578    -6.2998    88.4103 H          1           0.4362
      4 H3          9.8852    -5.5915    87.0373 H          1           0.4438
      5 C1          8.5012    -6.7264    88.0176 C.3        1           0.0245
      6 C2          7.9601    -5.5575    88.8441 C.3        1          -0.1634
      7 C3          6.5135    -5.8529    89.2529 C.3        1           0.1229
      8 N2          6.4725    -7.1496    89.9426 N.pl3      1          -0.5758
      9 C4          7.0490    -8.3240    89.2738 C.3        1           0.1073
     10 C5          8.4895    -8.0009    88.8647 C.3        1          -0.1622
     11 C6          5.9036    -7.2622    91.1949 C.ar       1           0.6934
     12 N3          6.3543    -8.1750    92.0500 N.ar       1          -0.6146
     13 C7          5.8064    -8.2836    93.2562 C.ar       1           0.6762
     14 N4          6.2746    -9.2309    94.1441 N.pl3      1          -0.6223
     15 C8          5.6707    -9.3505    95.4734 C.3        1           0.1633
     16 C9          6.7213    -9.1068    96.5261 C.ar       1          -0.1330
     17 C10         6.9403    -7.8481    96.9959 C.ar       1          -0.0692
     18 C11         7.9068    -7.6037    97.9692 C.ar       1          -0.1290
     19 C12         8.6606    -8.6164    98.4782 C.ar       1          -0.0719
     20 C13         8.4632    -9.9291    98.0180 C.ar       1          -0.0577
     21 C14         9.2217   -11.0005    98.5201 C.ar       1          -0.0922
     22 C15         9.0024   -12.2589    98.0507 C.ar       1          -0.1165
     23 C16         8.0356   -12.5034    97.0769 C.ar       1          -0.0955
     24 C17         7.2827   -11.4909    96.5672 C.ar       1          -0.1280
     25 C18         7.4759   -10.1787    97.0318 C.ar       1          -0.0313
     26 N5          4.8077    -7.4794    93.6075 N.ar       1          -0.6094
     27 C19         4.3570    -6.5668    92.7525 C.ar       1           0.6925
     28 N6          3.3204    -5.7320    93.1171 N.pl3      1          -0.6552
     29 C20         2.7167    -5.8516    94.4466 C.3        1           0.0880
     30 C21         1.5985    -4.8176    94.5938 C.3        1          -0.1302
     31 C22         0.5317    -5.0643    93.5253 C.3        1          -0.0695
     32 C23        -0.5695    -4.0460    93.6704 C.ar       1          -0.1112
     33 C24        -0.4938    -2.8455    92.9883 C.ar       1          -0.0973
     34 C25        -1.5021    -1.9103    93.1196 C.ar       1          -0.1430
     35 C26        -2.5915    -2.1766    93.9363 C.ar       1           0.1162
     36 O1         -3.5848    -1.2585    94.0669 O.3        1          -0.4979
     37 C27        -2.6654    -3.3820    94.6193 C.ar       1          -0.1424
     38 C28        -1.6568    -4.3159    94.4808 C.ar       1          -0.0967
     39 N7          4.9088    -6.4547    91.5480 N.ar       1          -0.6381
     40 H4          4.5826    -5.7861    90.9255 H          1           0.4327
     41 H5          7.8744    -6.8696    87.1374 H          1           0.1527
     42 H6          8.5717    -5.4295    89.7373 H          1           0.0998
     43 H7          7.9906    -4.6455    88.2479 H          1           0.1191
     44 H8          6.1565    -5.0711    89.9231 H          1           0.1337
     45 H9          5.8834    -5.8915    88.3644 H          1           0.1047
     46 H10         7.0449    -9.1726    89.9578 H          1           0.0959
     47 H11         6.4624    -8.5641    88.3870 H          1           0.1164
     48 H12         8.8967    -8.8280    88.2831 H          1           0.1204
     49 H13         9.0960    -7.8498    89.7576 H          1           0.1004
     50 H14         7.0033    -9.8174    93.8879 H          1           0.4337
     51 H15         4.8738    -8.6142    95.5782 H          1           0.1000
     52 H16         5.2585   -10.3520    95.5965 H          1           0.0998
     53 H17         6.3563    -7.0266    96.6081 H          1           0.1273
     54 H18         8.0606    -6.5955    98.3247 H          1           0.1329
     55 H19         9.4067    -8.4119    99.2319 H          1           0.1362
     56 H20         9.9748   -10.8260    99.2743 H          1           0.1347
     57 H21         9.5866   -13.0805    98.4383 H          1           0.1303
     58 H22         7.8820   -13.5116    96.7213 H          1           0.1256
     59 H23         6.5374   -11.6954    95.8128 H          1           0.1192
     60 H24         2.9917    -5.0659    92.4933 H          1           0.4479
     61 H25         2.3039    -6.8530    94.5694 H          1           0.0879
     62 H26         3.4766    -5.6759    95.2081 H          1           0.0858
     63 H27         1.1493    -4.9068    95.5830 H          1           0.0872
     64 H28         2.0111    -3.8162    94.4711 H          1           0.0880
     65 H29         0.9810    -4.9753    92.5361 H          1           0.0791
     66 H30         0.1191    -6.0657    93.6481 H          1           0.0780
     67 H31         0.3545    -2.6388    92.3527 H          1           0.1251
     68 H32        -1.4421    -0.9726    92.5874 H          1           0.1327
     69 H33        -4.3001    -1.5341    94.6564 H          1           0.3972
     70 H34        -3.5122    -3.5914    95.2559 H          1           0.1330
     71 H35        -1.7159    -5.2560    95.0089 H          1           0.1260
@<TRIPOS>BOND
     1    1    2 1
     2    1    3 1
     3    1    4 1
     4    1    5 1
     5    5   10 1
     6    5    6 1
     7    5   41 1
     8    6    7 1
     9    6   42 1
    10    6   43 1
    11    7    8 1
    12    7   44 1
    13    7   45 1
    14    8    9 1
    15    8   11 1
    16    9   10 1
    17    9   46 1
    18    9   47 1
    19   10   48 1
    20   10   49 1
    21   11   39 ar
    22   11   12 ar
    23   12   13 ar
    24   13   14 1
    25   13   26 ar
    26   14   15 1
    27   14   50 1
    28   15   16 1
    29   15   51 1
    30   15   52 1
    31   16   25 ar
    32   16   17 ar
    33   17   18 ar
    34   17   53 1
    35   18   19 ar
    36   18   54 1
    37   19   20 ar
    38   19   55 1
    39   20   25 ar
    40   20   21 ar
    41   21   22 ar
    42   21   56 1
    43   22   23 ar
    44   22   57 1
    45   23   24 ar
    46   23   58 1
    47   24   25 ar
    48   24   59 1
    49   26   27 ar
    50   27   28 1
    51   27   39 ar
    52   28   29 1
    53   28   60 1
    54   29   30 1
    55   29   61 1
    56   29   62 1
    57   30   31 1
    58   30   63 1
    59   30   64 1
    60   31   32 1
    61   31   65 1
    62   31   66 1
    63   32   38 ar
    64   32   33 ar
    65   33   34 ar
    66   33   67 1
    67   34   35 ar
    68   34   68 1
    69   35   36 1
    70   35   37 ar
    71   36   69 1
    72   37   38 ar
    73   37   70 1
    74   38   71 1
    75   39   40 1
##########                 Name:              T541716
##########          Protonation:                   43
##########               SMILES:   1cc(cc(c1)c2cc(ccc2Cl)C(F)(F)F)CNc3[nH+]c(nc(n3)N4CC[NH2+]CC4)NCCc5ccc(cc5)O
##########            Long Name:   hylamino]-4-piperazin-4-ium-1-yl-1,3,5-triazin-1-ium-2-yl]amino]ethyl]phenol
##########          FlexRecCode: 1
##########               Number:                  168
##########   Ligand Source File: /raidb/db2/rgc/tcams/tcams-0002185.db2.gz
##########           GlobalRank: 81
##########                 Rank:                    1
##########               Setnum:                  207
##########             Matchnum:                 4552
##########                Cloud:                    1
##########        Electrostatic:           -41.194199
##########        Van der Waals:           -29.842575
##########  Ligand Polar Desolv:             6.138663
########## Ligand Apolar Desolv:            -3.976716
##########      Internal Energy:             0.000000
##########      Receptor Energy: 0.0
########## Receptor Desolvation:             0.000000
########## Receptor Hydrophobic:             0.000000
##########         Total Energy: -68.87
##########        Ligand Charge:             2.000000
##########            Arbitrary:    +999.9990
##########     heavy atom count:   41
##########           pose count:    1
##########        Ligand Energy:             0.000000
# num electro vdwattr vdwrepu polsolv apolsol rdesolv rhydroe totalscore fullpol fullapo
#   1    5.57   -1.15    0.10   -2.50    0.49    0.00    0.00       2.50   -6.11    1.19
#   2   -1.71   -1.21    0.09    0.15   -0.12    0.00    0.00      -2.80    0.38   -0.31
#   3    1.52   -1.72    0.31   -1.24   -0.19    0.00    0.00      -1.31   -3.02   -0.46
#   4    1.59   -1.30    0.12   -0.76   -0.18    0.00    0.00      -0.52   -1.94   -0.45
#   5    3.05   -1.37    0.18   -0.65   -0.14    0.00    0.00       1.08   -1.69   -0.36
#   6    2.58   -1.23    0.19   -1.12   -0.10    0.00    0.00       0.32   -2.49   -0.23
#   7   -2.58   -0.83    0.09    1.19   -0.13    0.00    0.00      -2.27    3.32   -0.37
#   8   27.40   -2.70    2.43   -7.68    0.59    0.00    0.00      20.04  -22.71    1.74
#   9  -21.69   -1.32    0.44    6.23   -1.24    0.00    0.00     -17.58   24.13   -4.81
#  10   10.14   -0.51    0.02   -4.17    0.35    0.00    0.00       5.84  -21.67    1.84
#  11   -6.09   -0.31    0.01    2.88   -0.60    0.00    0.00      -4.11   22.51   -4.68
#  12    5.98   -0.26    0.00   -2.35    0.20    0.00    0.00       3.58  -21.50    1.84
#  13  -13.20   -0.53    0.04    4.16   -0.83    0.00    0.00     -10.36   23.98   -4.81
#  14   10.77   -0.42    0.02   -3.44    0.27    0.00    0.00       7.20  -22.07    1.74
#  15   -1.09   -0.13    0.00    0.37   -0.03    0.00    0.00      -0.88    4.56   -0.39
#  16    0.62   -0.36    0.02   -0.34   -0.05    0.00    0.00      -0.11   -2.49   -0.37
#  17    0.16   -0.30    0.01   -0.19   -0.04    0.00    0.00      -0.36   -1.63   -0.37
#  18    0.11   -0.55    0.04   -0.35   -0.07    0.00    0.00      -0.81   -1.85   -0.36
#  19    0.22   -1.19    0.21   -0.74   -0.15    0.00    0.00      -1.65   -2.22   -0.44
#  20    0.48   -1.45    0.36   -0.97   -0.15    0.00    0.00      -1.73   -3.08   -0.47
#  21    0.38   -0.78    0.08   -0.39   -0.10    0.00    0.00      -0.82   -1.68   -0.45
#  22    0.10   -0.49    0.02   -0.09   -0.07    0.00    0.00      -0.53   -0.47   -0.38
#  23    0.07   -0.54    0.02   -0.18   -0.09    0.00    0.00      -0.73   -0.82   -0.42
#  24    0.19   -0.57    0.03   -0.53   -0.08    0.00    0.00      -0.96   -2.43   -0.38
#  25    0.05   -0.63    0.06   -0.21   -0.09    0.00    0.00      -0.81   -1.06   -0.44
#  26    0.13   -1.08    0.51   -0.34   -0.09    0.00    0.00      -0.87   -1.70   -0.46
#  27    0.00   -0.76    0.17   -0.03   -0.06    0.00    0.00      -0.68   -0.17   -0.30
#  28    0.07   -1.74    0.39   -0.12   -0.21    0.00    0.00      -1.61   -0.49   -0.89
#  29   -0.36   -0.64    0.07    1.34   -0.02    0.00    0.00       0.40    5.11   -0.07
#  30    0.15   -1.02    0.36   -0.55   -0.16    0.00    0.00      -1.23   -1.69   -0.48
#  31    0.06   -0.25    0.01   -0.32   -0.08    0.00    0.00      -0.58   -1.76   -0.45
#  32    0.08   -1.33    0.63   -0.69   -0.16    0.00    0.00      -1.48   -1.87   -0.45
#  33   21.39   -1.83    1.06   -5.88    0.26    0.00    0.00      15.00  -22.24    0.99
#  34  -21.34   -0.09    0.02    4.77    0.10    0.00    0.00     -16.55   17.44    0.36
#  35    1.68   -0.22    0.00   -1.89    0.16    0.00    0.00      -0.28  -20.66    1.70
#  36   -0.18   -0.21    0.00    0.40   -0.07    0.00    0.00      -0.06    2.93   -0.48
#  37    0.04   -0.25    0.01    0.06   -0.07    0.00    0.00      -0.22    0.37   -0.48
#  38    0.70   -0.19    0.00   -2.14    0.08    0.00    0.00      -1.54  -22.76    0.89
#  39   -0.57    0.00    0.00    0.92    0.02    0.00    0.00       0.37   22.45    0.56
#  40   -0.60    0.00    0.00    1.22    0.03    0.00    0.00       0.64   23.31    0.57
#  41    0.03   -0.10    0.00    0.02   -0.03    0.00    0.00      -0.08    0.38   -0.48
#  42   -0.10   -0.09    0.00    0.18   -0.03    0.00    0.00      -0.04    2.86   -0.48
#  43    2.71   -1.58    0.28   -0.87   -0.20    0.00    0.00       0.35   -1.99   -0.45
#  44    3.06   -1.45    0.22   -1.24   -0.19    0.00    0.00       0.40   -3.00   -0.46
#  45   -5.42   -0.02    0.00    1.47    0.28    0.00    0.00      -3.69    6.35    1.22
#  46   -0.59   -0.87    0.78    0.66   -0.12    0.00    0.00      -0.14    1.60   -0.28
#  47   -2.27   -0.25    0.02    1.20   -0.08    0.00    0.00      -1.37    4.45   -0.28
#  48   -2.64   -0.51    0.15    1.11   -0.10    0.00    0.00      -1.99    3.20   -0.28
#  49   -3.49   -0.58    0.13    1.68   -0.14    0.00    0.00      -2.39    3.44   -0.28
#  50   -2.06   -0.12    0.00    0.48   -0.03    0.00    0.00      -1.72    4.57   -0.27
#  51   -2.69   -0.43    0.18    1.34   -0.09    0.00    0.00      -1.69    4.19   -0.27
#  52  -27.92   -0.19    0.09    5.38    0.20    0.00    0.00     -22.43   15.91    0.58
#  53   -9.84   -0.01    0.00    1.89    0.08    0.00    0.00      -7.88   14.56    0.58
#  54   -0.72   -0.03    0.00    0.19   -0.01    0.00    0.00      -0.57    5.70   -0.27
#  55   -0.53   -0.02    0.00    0.13   -0.01    0.00    0.00      -0.42    4.68   -0.27
#  56   -0.23   -0.03    0.00    0.11   -0.01    0.00    0.00      -0.16    3.51   -0.25
#  57   -0.43   -0.27    0.03    0.47   -0.09    0.00    0.00      -0.29    1.45   -0.28
#  58   -0.73   -0.36    0.09    0.76   -0.08    0.00    0.00      -0.32    2.60   -0.28
#  59   -2.03   -0.15    0.01    0.78   -0.04    0.00    0.00      -1.43    5.28   -0.28
#  60   -0.27   -0.14    0.01    0.37   -0.04    0.00    0.00      -0.07    2.48   -0.27
#  61   -0.13   -0.10    0.00    0.23   -0.03    0.00    0.00      -0.02    2.12   -0.27
#  62   -0.17   -0.28    0.12    0.54   -0.05    0.00    0.00       0.16    2.89   -0.28
#  63   -0.17   -0.08    0.00    0.42   -0.02    0.00    0.00       0.15    5.21   -0.28
#  64   -0.91   -0.07    0.00    0.29   -0.02    0.00    0.00      -0.70    4.16   -0.24
#  65   -0.38   -0.15    0.02    1.18   -0.04    0.00    0.00       0.63    8.42   -0.28
#  66   -0.22   -0.08    0.00    0.41   -0.02    0.00    0.00       0.10    5.78   -0.28
#  67   -0.16   -0.02    0.00    0.22   -0.01    0.00    0.00       0.04    8.27   -0.28
#  68   -0.18   -0.04    0.00    0.23   -0.01    0.00    0.00       0.01    5.75   -0.28
#  69   -0.16   -0.02    0.00    0.11   -0.01    0.00    0.00      -0.08    3.91   -0.24
#  70   -0.08   -0.03    0.00    0.18   -0.01    0.00    0.00       0.05    5.12   -0.28
#  71   -5.27   -0.48    0.18    1.82   -0.12    0.00    0.00      -3.86    4.14   -0.28
#  72   -3.09   -0.57    0.28    0.53   -0.10    0.00    0.00      -2.96    1.46   -0.28

@<TRIPOS>MOLECULE
          T541716        43
   72    76     0     0     0



@<TRIPOS>ATOM
      1 O1          7.0091    -8.6752    97.2451 O.3        1          -0.4957
      2 C1          6.2538    -7.6590    96.7515 C.ar       1           0.1246
      3 C2          4.8844    -7.6401    96.9728 C.ar       1          -0.1429
      4 C3          4.1189    -6.6056    96.4703 C.ar       1          -0.0927
      5 C4          4.7165    -5.5901    95.7469 C.ar       1          -0.1185
      6 C5          3.8790    -4.4632    95.1995 C.3        1          -0.0828
      7 C6          3.3888    -4.8268    93.7966 C.3        1           0.0860
      8 N1          4.5406    -5.0498    92.9193 N.pl3      1          -0.6478
      9 C7          4.4453    -5.9387    91.8679 C.ar       1           0.6999
     10 N2          3.3065    -6.5885    91.6479 N.ar       1          -0.6238
     11 C8          3.2147    -7.4447    90.6353 C.ar       1           0.6925
     12 N3          4.2617    -7.6512    89.8424 N.ar       1          -0.6232
     13 C9          5.4003    -7.0015    90.0622 C.ar       1           0.6984
     14 N4          6.4870    -7.2156    89.2389 N.pl3      1          -0.6436
     15 C10         6.3857    -8.1587    88.1225 C.3        1           0.1349
     16 C11         5.9147    -7.4303    86.8904 C.ar       1          -0.1381
     17 C12         4.9239    -7.9799    86.1017 C.ar       1          -0.0661
     18 C13         4.4894    -7.3051    84.9628 C.ar       1          -0.0464
     19 C14         5.0582    -6.0781    84.6264 C.ar       1          -0.0683
     20 C15         6.0479    -5.5381    85.4219 C.ar       1          -0.1122
     21 C16         6.4717    -6.2097    86.5549 C.ar       1          -0.0818
     22 C17         3.4252    -7.8911    84.1109 C.ar       1          -0.0531
     23 C18         3.7604    -8.7394    83.0574 C.ar       1          -0.0441
     24 C19         2.7667    -9.2820    82.2685 C.ar       1          -0.1717
     25 C20         1.4391    -8.9857    82.5214 C.ar       1          -0.0468
     26 C21         1.0995    -8.1448    83.5652 C.ar       1          -0.1047
     27 C22         2.0856    -7.5998    84.3650 C.ar       1           0.0030
     28 Cl1         1.6579    -6.5494    85.6793 Cl         1          -0.0485
     29 C23         3.1284   -10.1991    81.1286 C.3        1           0.5091
     30 F1          4.5184   -10.3465    81.0717 F          1          -0.1688
     31 F2          2.5344   -11.4496    81.3300 F          1          -0.1704
     32 F3          2.6677    -9.6523    79.9261 F          1          -0.1748
     33 N5          5.4904    -6.1411    91.0718 N.ar       1          -0.6328
     34 H1          6.3200    -5.6637    91.2296 H          1           0.4421
     35 N6          2.0327    -8.1197    90.4074 N.pl3      1          -0.5674
     36 C24         0.8597    -7.9029    91.2682 C.3        1           0.0918
     37 C25        -0.3515    -7.6141    90.3752 C.3        1          -0.0216
     38 N7         -0.5085    -8.6997    89.3989 N.4        1          -0.5089
     39 H2         -0.5785    -9.5807    89.8859 H          1           0.4335
     40 H3         -1.3478    -8.5470    88.8602 H          1           0.4428
     41 C26         0.6492    -8.7319    88.4963 C.3        1          -0.0215
     42 C27         1.9082    -9.0719    89.2929 C.3        1           0.0910
     43 C28         6.0811    -5.6065    95.5253 C.ar       1          -0.0925
     44 C29         6.8518    -6.6358    96.0302 C.ar       1          -0.1427
     45 H4          7.9518    -8.5988    97.0430 H          1           0.3983
     46 H5          4.4171    -8.4335    97.5372 H          1           0.1355
     47 H6          3.0529    -6.5904    96.6423 H          1           0.1281
     48 H7          3.0219    -4.2972    95.8522 H          1           0.0943
     49 H8          4.4795    -3.5547    95.1504 H          1           0.0940
     50 H9          2.7881    -5.7352    93.8456 H          1           0.0935
     51 H10         2.7829    -4.0117    93.4007 H          1           0.0934
     52 H11         5.3703    -4.5727    93.0774 H          1           0.4470
     53 H12         7.3179    -6.7413    89.3993 H          1           0.4470
     54 H13         7.3632    -8.6015    87.9314 H          1           0.1005
     55 H14         5.6738    -8.9448    88.3745 H          1           0.0985
     56 H15         4.4869    -8.9311    86.3668 H          1           0.1300
     57 H16         4.7254    -5.5511    83.7444 H          1           0.1374
     58 H17         6.4894    -4.5873    85.1622 H          1           0.1393
     59 H18         7.2435    -5.7812    87.1771 H          1           0.1296
     60 H19         4.7963    -8.9713    82.8584 H          1           0.1491
     61 H20         0.6651    -9.4126    81.9010 H          1           0.1539
     62 H21         0.0617    -7.9169    83.7582 H          1           0.1539
     63 H22         0.6714    -8.7967    91.8628 H          1           0.1135
     64 H23         1.0404    -7.0529    91.9262 H          1           0.1481
     65 H24        -1.2487    -7.5459    90.9903 H          1           0.1585
     66 H25        -0.1987    -6.6717    89.8492 H          1           0.1388
     67 H26         0.4893    -9.4875    87.7271 H          1           0.1587
     68 H27         0.7716    -7.7556    88.0273 H          1           0.1387
     69 H28         2.7818    -8.9944    88.6456 H          1           0.1483
     70 H29         1.8276   -10.0858    89.6847 H          1           0.1131
     71 H30         6.5456    -4.8118    94.9603 H          1           0.1283
     72 H31         7.9183    -6.6462    95.8600 H          1           0.1354
@<TRIPOS>BOND
     1    1    2 1
     2    1   45 1
     3    2   44 ar
     4    2    3 ar
     5    3    4 ar
     6    3   46 1
     7    4    5 ar
     8    4   47 1
     9    5    6 1
    10    5   43 ar
    11    6    7 1
    12    6   48 1
    13    6   49 1
    14    7    8 1
    15    7   50 1
    16    7   51 1
    17    8    9 1
    18    8   52 1
    19    9   33 ar
    20    9   10 ar
    21   10   11 ar
    22   11   12 ar
    23   11   35 1
    24   12   13 ar
    25   13   14 1
    26   13   33 ar
    27   14   15 1
    28   14   53 1
    29   15   16 1
    30   15   54 1
    31   15   55 1
    32   16   21 ar
    33   16   17 ar
    34   17   18 ar
    35   17   56 1
    36   18   19 ar
    37   18   22 1
    38   19   20 ar
    39   19   57 1
    40   20   21 ar
    41   20   58 1
    42   21   59 1
    43   22   27 ar
    44   22   23 ar
    45   23   24 ar
    46   23   60 1
    47   24   25 ar
    48   24   29 1
    49   25   26 ar
    50   25   61 1
    51   26   27 ar
    52   26   62 1
    53   27   28 1
    54   29   30 1
    55   29   31 1
    56   29   32 1
    57   33   34 1
    58   35   42 1
    59   35   36 1
    60   36   37 1
    61   36   63 1
    62   36   64 1
    63   37   38 1
    64   37   65 1
    65   37   66 1
    66   38   39 1
    67   38   40 1
    68   38   41 1
    69   41   42 1
    70   41   67 1
    71   41   68 1
    72   42   69 1
    73   42   70 1
    74   43   44 ar
    75   43   71 1
    76   44   72 1
##########                 Name:              T531210
##########          Protonation:                   76
##########               SMILES:   Cc1cc(c2ccccc2n1)OCCC[NH+]3CC[C@H](C3)NC(=O)c4ccc(cc4)Br
##########            Long Name:   -[(3R)-1-[3-[(2-methyl-4-quinolyl)oxy]propyl]pyrrolidin-1-ium-3-yl]benzamide
##########          FlexRecCode: 1
##########               Number:                  402
##########   Ligand Source File: /raidb/db2/rgc/tcams/tcams-0000796.db2.gz
##########           GlobalRank: 82
##########                 Rank:                    1
##########               Setnum:                   49
##########             Matchnum:                 3060
##########                Cloud:                    1
##########        Electrostatic:           -41.050560
##########        Van der Waals:           -35.654934
##########  Ligand Polar Desolv:            12.876420
########## Ligand Apolar Desolv:            -5.013206
##########      Internal Energy:             0.000000
##########      Receptor Energy: 0.0
########## Receptor Desolvation:             0.000000
########## Receptor Hydrophobic:             0.000000
##########         Total Energy: -68.84
##########        Ligand Charge:             1.000000
##########            Arbitrary:    +999.9990
##########     heavy atom count:   30
##########           pose count:    1
##########        Ligand Energy:             0.000000
# num electro vdwattr vdwrepu polsolv apolsol rdesolv rhydroe totalscore fullpol fullapo
#   1    2.06   -1.84    0.47   -0.60   -0.12    0.00    0.00      -0.04   -1.01   -0.20
#   2   -2.86   -1.66    0.20    0.54   -0.38    0.00    0.00      -4.17    1.05   -0.75
#   3    3.34   -1.26    0.10   -1.23   -0.16    0.00    0.00       0.80   -3.19   -0.41
#   4   -1.18   -1.34    0.18    0.80   -0.11    0.00    0.00      -1.65    2.31   -0.32
#   5    0.80   -1.54    0.75   -1.54    0.24    0.00    0.00      -1.29   -5.11    0.81
#   6   -0.51   -0.59    0.08    0.08   -0.02    0.00    0.00      -0.97    0.33   -0.09
#   7    2.99   -0.63    0.09   -1.11   -0.06    0.00    0.00       1.28   -4.27   -0.24
#   8    0.10   -0.43    0.03    0.11   -0.07    0.00    0.00      -0.27    0.49   -0.32
#   9   14.69   -1.68    1.75   -3.55    0.12    0.00    0.00      11.34  -12.80    0.45
#  10  -23.02   -0.12    0.04    4.96    0.15    0.00    0.00     -17.99   18.56    0.56
#  11    0.45   -1.37    0.83    0.17   -0.17    0.00    0.00      -0.09    0.40   -0.40
#  12    5.65   -1.36    0.22   -2.07   -0.14    0.00    0.00       2.31   -4.43   -0.29
#  13   -3.65   -0.69    0.05    0.94   -0.10    0.00    0.00      -3.45    2.79   -0.31
#  14    0.62   -0.86    0.17    0.13   -0.14    0.00    0.00      -0.08    0.44   -0.47
#  15   17.32   -1.62    0.29   -5.88    0.78    0.00    0.00      10.90  -15.66    2.08
#  16  -12.41   -1.02    0.07    2.84   -0.22    0.00    0.00     -10.74    8.36   -0.65
#  17   10.15   -0.65    0.02   -1.60    0.11    0.00    0.00       8.03   -5.60    0.39
#  18    3.10   -1.32    0.11   -0.76   -0.17    0.00    0.00       0.95   -1.79   -0.41
#  19    1.69   -2.35    0.57   -0.33   -0.22    0.00    0.00      -0.64   -0.67   -0.44
#  20    2.28   -2.37    0.35   -0.84   -0.27    0.00    0.00      -0.85   -1.41   -0.46
#  21    1.43   -1.97    0.23   -0.56   -0.20    0.00    0.00      -1.07   -0.86   -0.30
#  22    0.58  -10.59    9.19   -0.40   -0.72    0.00    0.00      -1.93   -0.60   -1.09
#  23    2.33   -2.53    1.09   -0.56   -0.25    0.00    0.00       0.07   -1.03   -0.46
#  24    1.28   -2.42    1.53   -0.38   -0.21    0.00    0.00      -0.20   -0.84   -0.46
#  25    0.67   -1.45    0.19   -0.45   -0.15    0.00    0.00      -1.20   -1.16   -0.40
#  26    0.32   -1.93    0.48   -0.24   -0.19    0.00    0.00      -1.56   -0.58   -0.45
#  27    1.11   -2.34    0.95   -0.61   -0.24    0.00    0.00      -1.13   -1.20   -0.47
#  28    0.68   -2.16    0.36   -0.28   -0.28    0.00    0.00      -1.67   -0.47   -0.47
#  29    0.78   -1.88    0.33   -0.30   -0.26    0.00    0.00      -1.35   -0.53   -0.46
#  30   -1.44   -1.68    0.45    0.07   -0.34    0.00    0.00      -2.94    0.15   -0.73
#  31    6.57   -1.87    0.47   -0.59    0.93    0.00    0.00       5.50   -1.20    1.89
#  32   -1.33   -0.86    1.50    0.44   -0.13    0.00    0.00      -0.37    0.93   -0.28
#  33   -1.57   -0.72    0.18    1.11   -0.17    0.00    0.00      -1.16    1.88   -0.28
#  34   -1.88   -0.83    0.49    0.13   -0.15    0.00    0.00      -2.25    0.24   -0.28
#  35   -2.16   -0.20    0.01    0.74   -0.04    0.00    0.00      -1.65    3.92   -0.22
#  36   -0.74   -0.25    0.09    0.43   -0.04    0.00    0.00      -0.52    2.53   -0.26
#  37   -0.37   -0.16    0.02    0.30   -0.03    0.00    0.00      -0.24    2.27   -0.26
#  38   -2.38   -0.31    0.09    0.69   -0.06    0.00    0.00      -1.97    3.07   -0.25
#  39   -2.41   -0.20    0.03    0.70   -0.05    0.00    0.00      -1.93    3.58   -0.28
#  40   -1.91   -0.09    0.00    0.57   -0.02    0.00    0.00      -1.45    6.90   -0.28
#  41   -1.90   -0.13    0.01    0.59   -0.03    0.00    0.00      -1.46    5.40   -0.27
#  42   -3.94   -0.21    0.01    0.90   -0.05    0.00    0.00      -3.29    4.59   -0.26
#  43   -7.54   -1.12    3.26    2.46   -0.12    0.00    0.00      -3.06    5.69   -0.28
#  44   -3.93   -0.60    0.18    0.32   -0.12    0.00    0.00      -4.15    0.76   -0.28
#  45   -4.36   -0.69    0.19    1.49   -0.15    0.00    0.00      -3.51    2.88   -0.28
#  46   -2.74   -0.12    0.00    0.20   -0.03    0.00    0.00      -2.69    1.88   -0.26
#  47   -5.60   -0.65    0.37    2.51   -0.09    0.00    0.00      -3.46    7.28   -0.26
#  48   -2.96   -0.11    0.00    0.83   -0.03    0.00    0.00      -2.28    6.57   -0.26
#  49  -10.13   -0.05    0.00    4.81    0.17    0.00    0.00      -5.20   12.12    0.43
#  50   -2.40   -1.12    1.17    2.54   -0.10    0.00    0.00       0.09    5.54   -0.22
#  51   -3.31   -0.68    0.13    1.41   -0.16    0.00    0.00      -2.61    2.49   -0.28
#  52   -3.64   -0.92    0.68    0.39   -0.14    0.00    0.00      -3.62    0.81   -0.28
#  53   -5.64   -0.94    1.44    0.31   -0.11    0.00    0.00      -4.93    0.80   -0.27
#  54   -0.03   -0.55    0.24    0.67   -0.08    0.00    0.00       0.25    2.20   -0.26
#  55   -2.13   -0.99    1.28    0.86   -0.13    0.00    0.00      -1.11    1.86   -0.28
#  56   -0.95   -0.83    0.52    0.70   -0.16    0.00    0.00      -0.72    1.22   -0.28
#  57   -1.00   -0.46    0.11    0.06   -0.14    0.00    0.00      -1.44    0.11   -0.28

@<TRIPOS>MOLECULE
          T531210        76
   57    60     0     0     0



@<TRIPOS>ATOM
      1 C1          8.0399    -7.1685    98.7153 C.3        1          -0.1109
      2 C2          7.7909    -8.4276    97.9254 C.ar       1           0.1940
      3 C3          6.9648    -8.3725    96.8093 C.ar       1          -0.2738
      4 C4          6.7277    -9.5200    96.0746 C.ar       1           0.1870
      5 O1          5.9267    -9.4966    94.9809 O.3        1          -0.3013
      6 C5          6.5515    -9.2245    93.7248 C.3        1           0.0594
      7 C6          6.5505    -7.7158    93.4708 C.3        1          -0.1502
      8 C7          5.1088    -7.2040    93.4448 C.3        1          -0.0051
      9 N1          5.1078    -5.7554    93.2009 N.4        1          -0.3858
     10 H1          5.8086    -5.5222    92.5135 H          1           0.4306
     11 C8          5.3779    -5.0351    94.4568 C.3        1          -0.0114
     12 C9          4.1474    -4.1514    94.7005 C.3        1          -0.1590
     13 C10         3.0581    -5.0190    94.0546 C.3        1           0.1352
     14 C11         3.7786    -5.3268    92.7285 C.3        1          -0.0199
     15 N2          1.8237    -4.2611    93.8345 N.am       1          -0.7272
     16 C12         0.6429    -4.9055    93.7531 C.2        1           0.5725
     17 O2          0.6018    -6.1155    93.8622 O.2        1          -0.5131
     18 C13        -0.6024    -4.1408    93.5313 C.ar       1          -0.1358
     19 C14        -0.5625    -2.9141    92.8661 C.ar       1          -0.0799
     20 C15        -1.7278    -2.2052    92.6622 C.ar       1          -0.0977
     21 C16        -2.9357    -2.7081    93.1157 C.ar       1          -0.0599
     22 Br1        -4.5290    -1.7301    92.8314 Br         1          -0.0245
     23 C17        -2.9817    -3.9243    93.7761 C.ar       1          -0.0947
     24 C18        -1.8241    -4.6452    93.9810 C.ar       1          -0.0466
     25 C19         7.3467   -10.7179    96.4991 C.ar       1          -0.1246
     26 C20         7.1563   -11.9228    95.8073 C.ar       1          -0.0822
     27 C21         7.7705   -13.0563    96.2473 C.ar       1          -0.1224
     28 C22         8.5854   -13.0340    97.3768 C.ar       1          -0.0835
     29 C23         8.7913   -11.8817    98.0711 C.ar       1          -0.1012
     30 C24         8.1748   -10.6918    97.6469 C.ar       1           0.1652
     31 N3          8.3643    -9.5442    98.3075 N.ar       1          -0.4918
     32 H2          7.4916    -6.3418    98.2636 H          1           0.0850
     33 H3          7.7020    -7.3107    99.7418 H          1           0.0761
     34 H4          9.1062    -6.9422    98.7118 H          1           0.0849
     35 H5          6.5097    -7.4377    96.5171 H          1           0.1386
     36 H6          7.5786    -9.5891    93.7434 H          1           0.0778
     37 H7          6.0017    -9.7274    92.9292 H          1           0.0778
     38 H8          7.1002    -7.2131    94.2665 H          1           0.1011
     39 H9          7.0269    -7.5083    92.5128 H          1           0.1011
     40 H10         4.5590    -7.7069    92.6491 H          1           0.1372
     41 H11         4.6322    -7.4115    94.4029 H          1           0.1371
     42 H12         5.5020    -5.7420    95.2772 H          1           0.1385
     43 H13         6.2700    -4.4177    94.3525 H          1           0.1416
     44 H14         3.9637    -4.0153    95.7663 H          1           0.1255
     45 H15         4.2425    -3.1926    94.1909 H          1           0.1041
     46 H16         2.8721    -5.9254    94.6307 H          1           0.1279
     47 H17         3.8552    -4.4327    92.1095 H          1           0.1385
     48 H18         3.2794    -6.1311    92.1882 H          1           0.1459
     49 H19         1.8565    -3.2956    93.7475 H          1           0.4074
     50 H20         0.3790    -2.5207    92.5123 H          1           0.1318
     51 H21        -1.6982    -1.2560    92.1480 H          1           0.1440
     52 H22        -3.9268    -4.3112    94.1278 H          1           0.1470
     53 H23        -1.8618    -5.5958    94.4923 H          1           0.1487
     54 H24         6.5260   -11.9519    94.9308 H          1           0.1306
     55 H25         7.6234   -13.9839    95.7140 H          1           0.1319
     56 H26         9.0611   -13.9458    97.7069 H          1           0.1362
     57 H27         9.4259   -11.8814    98.9451 H          1           0.1425
@<TRIPOS>BOND
     1    1    2 1
     2    1   32 1
     3    1   33 1
     4    1   34 1
     5    2   31 ar
     6    2    3 ar
     7    3    4 ar
     8    3   35 1
     9    4    5 1
    10    4   25 ar
    11    5    6 1
    12    6    7 1
    13    6   36 1
    14    6   37 1
    15    7    8 1
    16    7   38 1
    17    7   39 1
    18    8    9 1
    19    8   40 1
    20    8   41 1
    21    9   10 1
    22    9   14 1
    23    9   11 1
    24   11   12 1
    25   11   42 1
    26   11   43 1
    27   12   13 1
    28   12   44 1
    29   12   45 1
    30   13   14 1
    31   13   15 1
    32   13   46 1
    33   14   47 1
    34   14   48 1
    35   15   16 am
    36   15   49 1
    37   16   17 2
    38   16   18 1
    39   18   24 ar
    40   18   19 ar
    41   19   20 ar
    42   19   50 1
    43   20   21 ar
    44   20   51 1
    45   21   22 1
    46   21   23 ar
    47   23   24 ar
    48   23   52 1
    49   24   53 1
    50   25   30 ar
    51   25   26 ar
    52   26   27 ar
    53   26   54 1
    54   27   28 ar
    55   27   55 1
    56   28   29 ar
    57   28   56 1
    58   29   30 ar
    59   29   57 1
    60   30   31 ar
##########                 Name:              T541585
##########          Protonation:                   52
##########               SMILES:   C[NH+](C)CCCOc1ccccc1C[NH+]2CC[C@H](C2)NC(=O)c3ccc(c(c3)Cl)Cl
##########            Long Name:   obenzoyl)amino]pyrrolidin-1-ium-1-yl]methyl]phenoxy]propyl-dimethyl-ammonium
##########          FlexRecCode: 1
##########               Number:                  274
##########   Ligand Source File: /raidb/db2/rgc/tcams/tcams-0002119.db2.gz
##########           GlobalRank: 83
##########                 Rank:                    1
##########               Setnum:                  190
##########             Matchnum:                 4264
##########                Cloud:                    1
##########        Electrostatic:           -53.085800
##########        Van der Waals:           -26.534302
##########  Ligand Polar Desolv:            14.547379
########## Ligand Apolar Desolv:            -3.751590
##########      Internal Energy:             0.000000
##########      Receptor Energy: 0.0
########## Receptor Desolvation:             0.000000
########## Receptor Hydrophobic:             0.000000
##########         Total Energy: -68.82
##########        Ligand Charge:             2.000000
##########            Arbitrary:    +999.9990
##########     heavy atom count:   30
##########           pose count:    1
##########        Ligand Energy:             0.000000
# num electro vdwattr vdwrepu polsolv apolsol rdesolv rhydroe totalscore fullpol fullapo
#   1    0.73   -0.23    0.01   -0.28   -0.07    0.00    0.00       0.16   -1.97   -0.48
#   2    9.72   -0.78    0.14   -3.66    0.11    0.00    0.00       5.53  -15.59    0.46
#   3  -13.87   -0.03    0.00    5.35    0.14    0.00    0.00      -8.41   22.02    0.56
#   4    1.72   -1.25    0.44   -0.79   -0.15    0.00    0.00      -0.03   -2.49   -0.47
#   5    0.18   -0.36    0.03   -0.03   -0.06    0.00    0.00      -0.25   -0.19   -0.35
#   6    1.97   -0.20    0.01   -0.70   -0.03    0.00    0.00       1.04   -5.89   -0.22
#   7   -0.39   -0.18    0.01    0.13   -0.01    0.00    0.00      -0.45    1.17   -0.09
#   8    3.41   -0.27    0.00   -1.54    0.11    0.00    0.00       1.72  -11.02    0.79
#   9   -0.89   -0.40    0.01    0.83   -0.04    0.00    0.00      -0.48    5.81   -0.31
#  10    0.24   -0.48    0.04   -1.16   -0.07    0.00    0.00      -1.43   -6.52   -0.42
#  11    0.06   -0.82    0.09   -0.79   -0.13    0.00    0.00      -1.59   -2.85   -0.47
#  12    0.78   -1.22    0.22   -1.81   -0.16    0.00    0.00      -2.19   -5.26   -0.47
#  13    0.67   -0.77    0.05   -0.51   -0.12    0.00    0.00      -0.69   -1.81   -0.44
#  14    2.20   -0.49    0.01   -0.98   -0.06    0.00    0.00       0.67   -5.19   -0.33
#  15   -1.15   -0.46    0.02    0.68   -0.08    0.00    0.00      -0.99    2.66   -0.30
#  16    8.95   -0.72    0.03   -4.87    0.15    0.00    0.00       3.54  -15.06    0.45
#  17  -10.31   -0.01    0.00    4.13    0.10    0.00    0.00      -6.10   21.56    0.51
#  18    0.21   -1.30    0.25    0.21   -0.18    0.00    0.00      -0.81    0.47   -0.41
#  19    4.57   -1.52    0.52   -2.50   -0.13    0.00    0.00       0.94   -5.49   -0.29
#  20   -3.10   -0.58    0.03    1.13   -0.10    0.00    0.00      -2.62    3.65   -0.31
#  21    0.30   -0.57    0.03    0.22   -0.14    0.00    0.00      -0.16    0.71   -0.47
#  22   12.20   -0.98    0.05   -7.67    0.75    0.00    0.00       4.35  -21.32    2.08
#  23   -5.32   -1.12    0.17    4.01   -0.20    0.00    0.00      -2.47   12.81   -0.65
#  24    1.91   -1.44    0.68   -2.63    0.11    0.00    0.00      -1.37   -9.73    0.39
#  25    1.08   -1.29    0.14   -0.93   -0.15    0.00    0.00      -1.15   -2.63   -0.41
#  26    0.77   -1.97    0.61   -0.09   -0.20    0.00    0.00      -0.89   -0.21   -0.44
#  27    1.23   -2.80    2.85   -1.03   -0.22    0.00    0.00       0.02   -2.11   -0.46
#  28    0.02   -1.59    0.30   -0.36   -0.15    0.00    0.00      -1.78   -0.72   -0.29
#  29    0.14   -5.27    3.17   -0.66   -0.56    0.00    0.00      -3.18   -1.12   -0.95
#  30    0.32   -1.16    0.08   -0.47   -0.13    0.00    0.00      -1.36   -1.08   -0.29
#  31    0.20   -3.03    0.58   -0.50   -0.44    0.00    0.00      -3.19   -1.07   -0.95
#  32    0.22   -1.18    0.13   -0.41   -0.15    0.00    0.00      -1.39   -1.24   -0.44
#  33   -1.36   -0.04    0.00    0.19   -0.01    0.00    0.00      -1.23    4.56   -0.28
#  34   -1.87   -0.07    0.00    0.39   -0.02    0.00    0.00      -1.57    5.21   -0.28
#  35   -1.47   -0.05    0.00    0.19   -0.01    0.00    0.00      -1.34    3.99   -0.28
#  36   -6.09   -1.15    1.41    1.77   -0.11    0.00    0.00      -4.17    4.67   -0.28
#  37   -4.07   -0.38    0.13    1.15   -0.08    0.00    0.00      -3.25    4.06   -0.28
#  38   -2.41   -0.18    0.02    1.11   -0.04    0.00    0.00      -1.50    6.73   -0.22
#  39   -3.62   -0.20    0.03    0.91   -0.05    0.00    0.00      -2.93    5.13   -0.28
#  40   -1.51   -0.06    0.00    0.35   -0.01    0.00    0.00      -1.23    6.68   -0.28
#  41   -0.87   -0.04    0.00    0.25   -0.01    0.00    0.00      -0.67    7.02   -0.28
#  42   -1.73   -0.08    0.00    0.40   -0.02    0.00    0.00      -1.43    5.10   -0.21
#  43   -0.31   -0.03    0.00    0.06   -0.01    0.00    0.00      -0.28    1.85   -0.26
#  44   -0.11   -0.11    0.02    0.32   -0.03    0.00    0.00       0.09    3.22   -0.26
#  45   -0.10   -0.07    0.00    0.31   -0.02    0.00    0.00       0.14    4.52   -0.22
#  46   -0.20   -0.20    0.04    0.36   -0.06    0.00    0.00      -0.05    1.74   -0.28
#  47   -1.20   -0.61    0.62    0.59   -0.10    0.00    0.00      -0.71    1.58   -0.28
#  48   -3.41   -0.21    0.02    1.10   -0.06    0.00    0.00      -2.55    5.05   -0.28
#  49   -3.49   -0.14    0.01    1.28   -0.04    0.00    0.00      -2.39    8.59   -0.27
#  50   -2.94   -0.22    0.03    1.30   -0.05    0.00    0.00      -1.89    6.35   -0.26
#  51   -4.98   -0.41    0.06    1.98   -0.10    0.00    0.00      -3.45    4.91   -0.25
#  52   -3.96   -1.00    0.99    2.37   -0.11    0.00    0.00      -1.71    5.81   -0.28
#  53   -4.34   -0.60    0.25    0.34   -0.12    0.00    0.00      -4.46    0.77   -0.28
#  54   -2.65   -0.96    0.96    1.58   -0.11    0.00    0.00      -1.17    4.18   -0.28
#  55   -3.76   -0.17    0.02    0.33   -0.04    0.00    0.00      -3.62    2.27   -0.26
#  56   -1.96   -0.23    0.02    2.66   -0.06    0.00    0.00       0.42   10.64   -0.26
#  57   -0.99   -0.20    0.05    1.26   -0.04    0.00    0.00       0.08    8.25   -0.26
#  58   -7.18   -0.02    0.00    3.87    0.10    0.00    0.00      -3.22   17.02    0.43
#  59   -1.74   -0.39    0.07    3.41   -0.08    0.00    0.00       1.27    9.37   -0.22
#  60   -2.64   -0.90    1.41    2.21   -0.12    0.00    0.00      -0.04    4.97   -0.28
#  61   -0.93   -0.19    0.02    0.20   -0.05    0.00    0.00      -0.95    1.14   -0.26

@<TRIPOS>MOLECULE
          T541585        52
   61    63     0     0     0



@<TRIPOS>ATOM
      1 C1          7.8984    -7.7150    89.2108 C.3        1          -0.0496
      2 N1          7.1279    -6.5883    89.7535 N.4        1          -0.3852
      3 H1          7.4625    -6.3668    90.6793 H          1           0.4274
      4 C2          7.2910    -5.4181    88.8807 C.3        1          -0.0551
      5 C3          5.7068    -6.9544    89.8213 C.3        1          -0.0095
      6 C4          5.5370    -8.1734    90.7303 C.3        1          -0.1511
      7 C5          4.0570    -8.5547    90.8008 C.3        1           0.0613
      8 O1          3.3074    -7.4587    91.3288 O.3        1          -0.3277
      9 C6          2.1841    -7.7609    92.0315 C.ar       1           0.1412
     10 C7          1.4614    -8.9056    91.7276 C.ar       1          -0.2008
     11 C8          0.3203    -9.2109    92.4435 C.ar       1          -0.0429
     12 C9         -0.1020    -8.3768    93.4624 C.ar       1          -0.1381
     13 C10         0.6162    -7.2354    93.7668 C.ar       1          -0.0498
     14 C11         1.7615    -6.9286    93.0575 C.ar       1          -0.1858
     15 C12         2.5472    -5.6875    93.3939 C.3        1           0.0548
     16 N2          2.7002    -5.5849    94.8513 N.4        1          -0.3846
     17 H2          1.7927    -5.5331    95.2892 H          1           0.4242
     18 C13         3.4898    -4.3888    95.1900 C.3        1          -0.0069
     19 C14         4.7272    -4.9062    95.9351 C.3        1          -0.1588
     20 C15         4.8980    -6.2743    95.2598 C.3        1           0.1353
     21 C16         3.4381    -6.7546    95.3624 C.3        1          -0.0188
     22 N3          5.8052    -7.1406    96.0166 N.am       1          -0.7269
     23 C17         5.9880    -8.4206    95.6364 C.2        1           0.5745
     24 O2          5.4003    -8.8563    94.6657 O.2        1          -0.5059
     25 C18         6.9031    -9.2946    96.4000 C.ar       1          -0.1348
     26 C19         7.1368    -9.0513    97.7549 C.ar       1          -0.0725
     27 C20         7.9912    -9.8701    98.4627 C.ar       1          -0.1048
     28 C21         8.6178   -10.9324    97.8326 C.ar       1          -0.0017
     29 Cl1         9.6921   -11.9587    98.7306 Cl         1          -0.0205
     30 C22         8.3902   -11.1795    96.4880 C.ar       1          -0.0395
     31 Cl2         9.1799   -12.5131    95.7061 Cl         1          -0.0195
     32 C23         7.5326   -10.3699    95.7707 C.ar       1          -0.0331
     33 H3          7.5367    -7.9543    88.2107 H          1           0.1300
     34 H4          8.9529    -7.4435    89.1606 H          1           0.1263
     35 H5          7.7773    -8.5836    89.8583 H          1           0.1255
     36 H6          6.7192    -4.5819    89.2834 H          1           0.1298
     37 H7          8.3454    -5.1465    88.8302 H          1           0.1258
     38 H8          6.9292    -5.6574    87.8806 H          1           0.1221
     39 H9          5.1350    -6.1183    90.2239 H          1           0.1366
     40 H10         5.3453    -7.1938    88.8213 H          1           0.1367
     41 H11         6.1088    -9.0093    90.3276 H          1           0.0971
     42 H12         5.8986    -7.9340    91.7303 H          1           0.1016
     43 H13         3.6953    -8.7940    89.8008 H          1           0.0822
     44 H14         3.9360    -9.4231    91.4483 H          1           0.0807
     45 H15         1.7904    -9.5573    90.9317 H          1           0.1375
     46 H16        -0.2428   -10.1016    92.2071 H          1           0.1423
     47 H17        -0.9944    -8.6172    94.0211 H          1           0.1436
     48 H18         0.2842    -6.5853    94.5628 H          1           0.1440
     49 H19         3.5312    -5.7429    92.9283 H          1           0.1366
     50 H20         2.0180    -4.8103    93.0216 H          1           0.1401
     51 H21         3.7886    -3.8653    94.2817 H          1           0.1376
     52 H22         2.9119    -3.7263    95.8344 H          1           0.1363
     53 H23         5.5919    -4.2670    95.7564 H          1           0.1270
     54 H24         4.5298    -5.0139    97.0015 H          1           0.1021
     55 H25         5.2161    -6.1733    94.2222 H          1           0.1299
     56 H26         3.1680    -6.9635    96.3975 H          1           0.1333
     57 H27         3.2674    -7.6280    94.7329 H          1           0.1455
     58 H28         6.2742    -6.7929    96.7912 H          1           0.4056
     59 H29         6.6494    -8.2229    98.2475 H          1           0.1363
     60 H30         8.1723    -9.6823    99.5107 H          1           0.1534
     61 H31         7.3521   -10.5656    94.7240 H          1           0.1596
@<TRIPOS>BOND
     1    1    2 1
     2    1   33 1
     3    1   34 1
     4    1   35 1
     5    2    3 1
     6    2    4 1
     7    2    5 1
     8    4   36 1
     9    4   37 1
    10    4   38 1
    11    5    6 1
    12    5   39 1
    13    5   40 1
    14    6    7 1
    15    6   41 1
    16    6   42 1
    17    7    8 1
    18    7   43 1
    19    7   44 1
    20    8    9 1
    21    9   14 ar
    22    9   10 ar
    23   10   11 ar
    24   10   45 1
    25   11   12 ar
    26   11   46 1
    27   12   13 ar
    28   12   47 1
    29   13   14 ar
    30   13   48 1
    31   14   15 1
    32   15   16 1
    33   15   49 1
    34   15   50 1
    35   16   17 1
    36   16   21 1
    37   16   18 1
    38   18   19 1
    39   18   51 1
    40   18   52 1
    41   19   20 1
    42   19   53 1
    43   19   54 1
    44   20   21 1
    45   20   22 1
    46   20   55 1
    47   21   56 1
    48   21   57 1
    49   22   23 am
    50   22   58 1
    51   23   24 2
    52   23   25 1
    53   25   32 ar
    54   25   26 ar
    55   26   27 ar
    56   26   59 1
    57   27   28 ar
    58   27   60 1
    59   28   29 1
    60   28   30 ar
    61   30   31 1
    62   30   32 ar
    63   32   61 1
##########                 Name:              T530855
##########          Protonation:                   43
##########               SMILES:   c1ccc2c(c1)cccc2CNc3[nH+]c(nc(n3)N4CC[NH2+]CC4)NCCCc5ccc(cc5)O
##########            Long Name:   ylamino)-4-piperazin-4-ium-1-yl-1,3,5-triazin-1-ium-2-yl]amino]propyl]phenol
##########          FlexRecCode: 1
##########               Number:                   37
##########   Ligand Source File: /raidb/db2/rgc/tcams/tcams-0000794.db2.gz
##########           GlobalRank: 84
##########                 Rank:                    1
##########               Setnum:                  427
##########             Matchnum:                   99
##########                Cloud:                    1
##########        Electrostatic:           -51.696465
##########        Van der Waals:           -25.128645
##########  Ligand Polar Desolv:            12.073544
########## Ligand Apolar Desolv:            -4.005274
##########      Internal Energy:             0.000000
##########      Receptor Energy: 0.0
########## Receptor Desolvation:             0.000000
########## Receptor Hydrophobic:             0.000000
##########         Total Energy: -68.76
##########        Ligand Charge:             2.000000
##########            Arbitrary:    +999.9990
##########     heavy atom count:   35
##########           pose count:    1
##########        Ligand Energy:             0.000000
# num electro vdwattr vdwrepu polsolv apolsol rdesolv rhydroe totalscore fullpol fullapo
#   1    4.46   -0.81    0.12   -1.20    0.30    0.00    0.00       2.87   -4.74    1.19
#   2   -1.27   -0.75    0.17    0.04   -0.06    0.00    0.00      -1.87    0.20   -0.31
#   3    0.51   -0.68    0.28   -0.33   -0.06    0.00    0.00      -0.29   -2.39   -0.46
#   4    0.20   -0.27    0.02   -0.19   -0.05    0.00    0.00      -0.27   -1.84   -0.46
#   5    0.24   -0.20    0.00   -0.13   -0.03    0.00    0.00      -0.12   -1.56   -0.36
#   6    0.10   -0.08    0.00   -0.10   -0.01    0.00    0.00      -0.09   -2.05   -0.23
#   7    0.21   -0.10    0.00   -0.23   -0.01    0.00    0.00      -0.14   -3.62   -0.22
#   8   -0.16   -0.08    0.00    0.15   -0.02    0.00    0.00      -0.10    3.15   -0.38
#   9    1.98   -0.24    0.01   -2.39    0.18    0.00    0.00      -0.47  -22.91    1.73
#  10   -3.78   -0.38    0.03    3.15   -0.62    0.00    0.00      -1.61   24.36   -4.81
#  11    4.85   -0.40    0.04   -2.77    0.23    0.00    0.00       1.95  -21.85    1.84
#  12   -7.68   -0.70    0.15    4.09   -0.85    0.00    0.00      -4.98   22.61   -4.68
#  13    5.28   -0.88    0.18   -4.81    0.41    0.00    0.00       0.18  -21.72    1.84
#  14   -4.53   -0.85    0.12    5.99   -1.18    0.00    0.00      -0.44   24.53   -4.81
#  15    3.38   -1.24    0.16   -7.30    0.56    0.00    0.00      -4.44  -22.38    1.73
#  16   -0.26   -1.25    0.37    1.64   -0.12    0.00    0.00       0.38    4.62   -0.33
#  17    0.90   -1.47    0.21   -0.77   -0.15    0.00    0.00      -1.27   -1.96   -0.37
#  18    0.43   -1.55    0.20   -1.13   -0.24    0.00    0.00      -2.29   -2.13   -0.45
#  19    1.06   -2.06    0.47   -1.44   -0.27    0.00    0.00      -2.24   -2.52   -0.47
#  20    0.79   -2.58    1.24   -1.38   -0.26    0.00    0.00      -2.18   -2.49   -0.46
#  21    0.90   -2.06    0.55   -0.86   -0.21    0.00    0.00      -1.68   -1.60   -0.40
#  22    1.88   -2.99    0.83   -1.43   -0.28    0.00    0.00      -1.99   -2.36   -0.46
#  23    2.16   -3.16    1.22   -1.35   -0.28    0.00    0.00      -1.42   -2.27   -0.47
#  24    1.46   -1.98    0.63   -1.43   -0.23    0.00    0.00      -1.55   -2.87   -0.47
#  25    1.74   -1.30    0.11   -0.75   -0.18    0.00    0.00      -0.37   -1.85   -0.44
#  26    0.30   -1.54    0.26   -0.52   -0.17    0.00    0.00      -1.67   -1.24   -0.40
#  27    4.35   -0.61    0.04   -5.06    0.22    0.00    0.00      -1.05  -22.64    0.99
#  28   -4.07   -0.01    0.00    3.01    0.06    0.00    0.00      -1.01   18.25    0.36
#  29   10.75   -0.74    0.09   -4.48    0.37    0.00    0.00       5.98  -20.66    1.71
#  30   -1.92   -0.43    0.04    0.63   -0.10    0.00    0.00      -1.79    2.94   -0.48
#  31    0.48   -0.48    0.06    0.07   -0.10    0.00    0.00       0.03    0.36   -0.48
#  32   19.62   -2.43    2.76   -6.75    0.27    0.00    0.00      13.46  -22.67    0.89
#  33  -25.30   -0.24    0.11    7.88    0.20    0.00    0.00     -17.35   22.44    0.56
#  34  -15.84   -0.04    0.00    6.69    0.16    0.00    0.00      -9.02   23.23    0.57
#  35    0.65   -0.79    0.30    0.09   -0.11    0.00    0.00       0.14    0.37   -0.48
#  36   -2.52   -0.77    0.20    0.74   -0.12    0.00    0.00      -2.47    2.89   -0.48
#  37    0.44   -0.33    0.01   -0.26   -0.06    0.00    0.00      -0.21   -1.84   -0.46
#  38    2.05   -0.55    0.03   -0.54   -0.10    0.00    0.00       0.89   -2.40   -0.46
#  39   -6.68   -0.01    0.00    1.06    0.24    0.00    0.00      -5.39    5.39    1.22
#  40   -0.35   -0.14    0.05    0.14   -0.03    0.00    0.00      -0.33    1.26   -0.28
#  41   -0.20   -0.03    0.00    0.14   -0.01    0.00    0.00      -0.11    3.52   -0.28
#  42   -0.09   -0.02    0.00    0.07   -0.01    0.00    0.00      -0.04    3.10   -0.28
#  43   -0.10   -0.02    0.00    0.09   -0.01    0.00    0.00      -0.04    3.02   -0.28
#  44   -0.05   -0.03    0.00    0.06   -0.01    0.00    0.00      -0.03    2.09   -0.28
#  45   -0.27   -0.05    0.00    0.11   -0.01    0.00    0.00      -0.23    2.23   -0.28
#  46   -0.30   -0.02    0.00    0.12   -0.01    0.00    0.00      -0.20    5.09   -0.27
#  47   -0.08   -0.01    0.00    0.10   -0.01    0.00    0.00       0.00    4.90   -0.27
#  48   -1.24    0.00    0.00    0.93    0.04    0.00    0.00      -0.27   15.38    0.58
#  49   -3.88   -0.02    0.00    3.81    0.15    0.00    0.00       0.06   14.30    0.58
#  50   -0.41   -0.25    0.04    1.09   -0.05    0.00    0.00       0.42    5.34   -0.23
#  51    0.63   -1.26    1.91    2.42   -0.11    0.00    0.00       3.59    5.98   -0.27
#  52   -1.03   -0.30    0.02    2.13   -0.12    0.00    0.00       0.71    5.14   -0.28
#  53   -0.59   -0.56    0.13    1.25   -0.15    0.00    0.00       0.08    2.30   -0.28
#  54   -2.05   -1.06    2.63    0.67   -0.15    0.00    0.00       0.03    1.22   -0.28
#  55   -3.77   -1.20    1.06    0.68   -0.17    0.00    0.00      -3.41    1.11   -0.28
#  56   -2.24   -1.52    2.67    1.00   -0.17    0.00    0.00      -0.27    1.61   -0.28
#  57   -2.31   -0.57    0.71    1.08   -0.09    0.00    0.00      -1.19    3.33   -0.28
#  58   -1.28   -0.18    0.01    1.14   -0.04    0.00    0.00      -0.36    6.11   -0.23
#  59   -3.04   -0.25    0.04    1.16   -0.06    0.00    0.00      -2.15    5.20   -0.28
#  60   -2.02   -0.05    0.00    0.22   -0.01    0.00    0.00      -1.87    4.06   -0.24
#  61   -3.35   -0.15    0.01    1.32   -0.04    0.00    0.00      -2.22    8.37   -0.28
#  62   -1.87   -0.05    0.00    0.30   -0.01    0.00    0.00      -1.64    5.72   -0.28
#  63   -5.65   -0.29    0.11    1.54   -0.05    0.00    0.00      -4.34    8.23   -0.28
#  64   -2.42   -0.08    0.00    0.41   -0.02    0.00    0.00      -2.10    5.68   -0.28
#  65   -2.77   -0.13    0.01    0.53   -0.03    0.00    0.00      -2.40    3.86   -0.24
#  66   -4.51   -0.62    0.60    1.51   -0.08    0.00    0.00      -3.09    5.14   -0.28
#  67   -0.58   -0.07    0.00    0.21   -0.02    0.00    0.00      -0.46    3.63   -0.28
#  68   -3.02   -0.15    0.01    0.22   -0.05    0.00    0.00      -2.99    1.31   -0.28

@<TRIPOS>MOLECULE
          T530855        43
   68    72     0     0     0



@<TRIPOS>ATOM
      1 O1          7.2485    -6.2503    86.3587 O.3        1          -0.4973
      2 C1          8.1924    -7.1787    86.6651 C.ar       1           0.1156
      3 C2          8.0126    -8.5023    86.2903 C.ar       1          -0.1428
      4 C3          8.9739    -9.4440    86.6026 C.ar       1          -0.0968
      5 C4         10.1142    -9.0685    87.2886 C.ar       1          -0.1101
      6 C5         11.1609   -10.0980    87.6283 C.3        1          -0.0723
      7 C6         10.8495   -10.7102    88.9954 C.3        1          -0.1273
      8 C7          9.4730   -11.3770    88.9540 C.3        1           0.0810
      9 N1          9.1748   -11.9632    90.2631 N.pl3      1          -0.6474
     10 C8          8.5269   -11.2133    91.2237 C.ar       1           0.6993
     11 N2          8.1687    -9.9606    90.9591 N.ar       1          -0.6246
     12 C9          7.5447    -9.2383    91.8842 C.ar       1           0.6923
     13 N3          7.2790    -9.7686    93.0741 N.ar       1          -0.6233
     14 C10         7.6372   -11.0210    93.3385 C.ar       1           0.6975
     15 N4          7.3608   -11.5717    94.5735 N.pl3      1          -0.6419
     16 C11         6.6726   -10.7759    95.5930 C.3        1           0.1357
     17 C12         7.5502   -10.6540    96.8120 C.ar       1          -0.1392
     18 C13         8.2008   -11.7462    97.2986 C.ar       1          -0.0594
     19 C14         9.0168   -11.6528    98.4242 C.ar       1          -0.1311
     20 C15         9.1866   -10.4667    99.0701 C.ar       1          -0.0621
     21 C16         8.5313    -9.3175    98.5973 C.ar       1          -0.0586
     22 C17         8.6826    -8.0753    99.2373 C.ar       1          -0.0867
     23 C18         8.0324    -6.9834    98.7506 C.ar       1          -0.1172
     24 C19         7.2161    -7.0769    97.6247 C.ar       1          -0.0888
     25 C20         7.0455    -8.2628    96.9793 C.ar       1          -0.1357
     26 C21         7.7057    -9.4113    97.4488 C.ar       1          -0.0280
     27 N5          8.2564   -11.7452    92.4114 N.ar       1          -0.6328
     28 H1          8.5140   -12.6606    92.6028 H          1           0.4420
     29 N6          7.1733    -7.9377    91.6098 N.pl3      1          -0.5677
     30 C22         7.4520    -7.3322    90.2983 C.3        1           0.0920
     31 C23         6.1580    -6.7064    89.7675 C.3        1          -0.0216
     32 N7          5.6224    -5.7716    90.7652 N.4        1          -0.5088
     33 H2          6.3267    -5.0866    90.9947 H          1           0.4335
     34 H3          4.8120    -5.3051    90.3860 H          1           0.4427
     35 C24         5.2385    -6.5023    91.9796 C.3        1          -0.0215
     36 C25         6.4818    -7.1198    92.6183 C.3        1           0.0912
     37 C26        10.2958    -7.7499    87.6629 C.ar       1          -0.0970
     38 C27         9.3401    -6.8034    87.3483 C.ar       1          -0.1430
     39 H4          7.4645    -5.3563    86.6572 H          1           0.3963
     40 H5          7.1218    -8.7962    85.7550 H          1           0.1328
     41 H6          8.8345   -10.4745    86.3110 H          1           0.1260
     42 H7         11.1595   -10.8814    86.8705 H          1           0.0807
     43 H8         12.1416    -9.6229    87.6578 H          1           0.0809
     44 H9         11.6066   -11.4548    89.2411 H          1           0.0869
     45 H10        10.8511    -9.9268    89.7532 H          1           0.0865
     46 H11         8.7159   -10.6323    88.7085 H          1           0.0928
     47 H12         9.4714   -12.1603    88.1961 H          1           0.0931
     48 H13         9.4328   -12.8784    90.4548 H          1           0.4467
     49 H14         7.6221   -12.4858    94.7664 H          1           0.4472
     50 H15         6.4609    -9.7828    95.1969 H          1           0.0989
     51 H16         5.7376   -11.2652    95.8658 H          1           0.1003
     52 H17         8.0826   -12.6995    96.8050 H          1           0.1292
     53 H18         9.5217   -12.5347    98.7897 H          1           0.1363
     54 H19         9.8216   -10.4095    99.9419 H          1           0.1393
     55 H20         9.3114    -7.9880   100.1110 H          1           0.1371
     56 H21         8.1504    -6.0302    99.2443 H          1           0.1324
     57 H22         6.7111    -6.1950    97.2592 H          1           0.1267
     58 H23         6.4095    -8.3202    96.1083 H          1           0.1152
     59 H24         8.2146    -6.5609    90.4058 H          1           0.1132
     60 H25         7.7983    -8.1000    89.6066 H          1           0.1479
     61 H26         6.3669    -6.1699    88.8420 H          1           0.1583
     62 H27         5.4268    -7.4916    89.5755 H          1           0.1386
     63 H28         4.7697    -5.8153    92.6841 H          1           0.1586
     64 H29         4.5350    -7.2935    91.7207 H          1           0.1386
     65 H30         6.1870    -7.7472    93.4593 H          1           0.1483
     66 H31         7.1449    -6.3267    92.9639 H          1           0.1130
     67 H32        11.1875    -7.4590    88.1983 H          1           0.1257
     68 H33         9.4841    -5.7729    87.6377 H          1           0.1326
@<TRIPOS>BOND
     1    1    2 1
     2    1   39 1
     3    2   38 ar
     4    2    3 ar
     5    3    4 ar
     6    3   40 1
     7    4    5 ar
     8    4   41 1
     9    5    6 1
    10    5   37 ar
    11    6    7 1
    12    6   42 1
    13    6   43 1
    14    7    8 1
    15    7   44 1
    16    7   45 1
    17    8    9 1
    18    8   46 1
    19    8   47 1
    20    9   10 1
    21    9   48 1
    22   10   27 ar
    23   10   11 ar
    24   11   12 ar
    25   12   13 ar
    26   12   29 1
    27   13   14 ar
    28   14   15 1
    29   14   27 ar
    30   15   16 1
    31   15   49 1
    32   16   17 1
    33   16   50 1
    34   16   51 1
    35   17   26 ar
    36   17   18 ar
    37   18   19 ar
    38   18   52 1
    39   19   20 ar
    40   19   53 1
    41   20   21 ar
    42   20   54 1
    43   21   26 ar
    44   21   22 ar
    45   22   23 ar
    46   22   55 1
    47   23   24 ar
    48   23   56 1
    49   24   25 ar
    50   24   57 1
    51   25   26 ar
    52   25   58 1
    53   27   28 1
    54   29   36 1
    55   29   30 1
    56   30   31 1
    57   30   59 1
    58   30   60 1
    59   31   32 1
    60   31   61 1
    61   31   62 1
    62   32   33 1
    63   32   34 1
    64   32   35 1
    65   35   36 1
    66   35   63 1
    67   35   64 1
    68   36   65 1
    69   36   66 1
    70   37   38 ar
    71   37   67 1
    72   38   68 1
##########                 Name:              T526467
##########          Protonation:                   19
##########               SMILES:   c1cc(cc(c1)c2cccc(c2)c3[nH]c4cc(ccc4n3)F)C[NH+]5CCN(CC5)c6cc[nH+]cc6
##########            Long Name:   yridin-1-ium-4-ylpiperazin-1-ium-1-yl)methyl]phenyl]phenyl]-1H-benzimidazole
##########          FlexRecCode: 1
##########               Number:                   20
##########   Ligand Source File: /raidb/db2/rgc/tcams/tcams-0000189.db2.gz
##########           GlobalRank: 85
##########                 Rank:                    1
##########               Setnum:                    7
##########             Matchnum:                 2437
##########                Cloud:                    1
##########        Electrostatic:           -70.139992
##########        Van der Waals:           -20.974876
##########  Ligand Polar Desolv:            26.387411
########## Ligand Apolar Desolv:            -3.963587
##########      Internal Energy:             0.000000
##########      Receptor Energy: 0.0
########## Receptor Desolvation:             0.000000
########## Receptor Hydrophobic:             0.000000
##########         Total Energy: -68.69
##########        Ligand Charge:             2.000000
##########            Arbitrary:    +999.9990
##########     heavy atom count:   35
##########           pose count:    1
##########        Ligand Energy:             0.000000
# num electro vdwattr vdwrepu polsolv apolsol rdesolv rhydroe totalscore fullpol fullapo
#   1    0.06   -0.03    0.00   -0.03   -0.02    0.00    0.00      -0.01   -0.72   -0.48
#   2   -0.08   -0.05    0.00    0.01   -0.01    0.00    0.00      -0.13    0.31   -0.34
#   3    0.10   -0.05    0.00   -0.03   -0.01    0.00    0.00       0.01   -1.07   -0.47
#   4    0.02   -0.08    0.00   -0.02   -0.02    0.00    0.00      -0.10   -0.37   -0.47
#   5   -0.01   -0.18    0.01   -0.01   -0.06    0.00    0.00      -0.25   -0.11   -0.79
#   6    0.04   -0.63    0.23   -0.39    0.25    0.00    0.00      -0.50   -3.12    2.03
#   7   -0.60   -0.76    0.25    0.50   -0.37    0.00    0.00      -0.98    2.90   -2.13
#   8    1.42   -0.36    0.02   -0.75    0.16    0.00    0.00       0.49   -5.44    1.14
#   9   -0.05   -0.14    0.00    0.02   -0.05    0.00    0.00      -0.23    0.24   -0.78
#  10    0.09   -0.07    0.00   -0.03   -0.02    0.00    0.00      -0.03   -0.99   -0.47
#  11    0.04   -1.74    1.22   -0.32   -0.11    0.00    0.00      -0.91   -1.20   -0.41
#  12    0.09   -1.85    1.37   -0.40   -0.11    0.00    0.00      -0.90   -1.55   -0.42
#  13    0.14   -1.79    0.67   -0.29   -0.13    0.00    0.00      -1.40   -0.91   -0.41
#  14    0.40   -2.06    0.67   -0.60   -0.18    0.00    0.00      -1.77   -1.48   -0.44
#  15    1.17   -3.88    4.63   -1.03   -0.20    0.00    0.00       0.70   -2.47   -0.47
#  16    0.83   -2.70    1.34   -0.71   -0.16    0.00    0.00      -1.40   -2.01   -0.45
#  17    0.10   -1.31    0.24   -0.74   -0.13    0.00    0.00      -1.84   -2.31   -0.41
#  18    0.35   -2.01    0.52   -1.23   -0.17    0.00    0.00      -2.54   -3.22   -0.44
#  19    1.08   -1.76    0.34   -1.75   -0.21    0.00    0.00      -2.30   -3.96   -0.47
#  20    1.69   -1.29    0.14   -0.88   -0.15    0.00    0.00      -0.48   -2.16   -0.36
#  21    3.18   -1.25    0.19   -1.28   -0.11    0.00    0.00       0.73   -3.74   -0.33
#  22   -1.56   -1.49    0.65    1.26   -0.15    0.00    0.00      -1.29    3.00   -0.36
#  23   15.48   -1.97    2.42   -6.55    0.10    0.00    0.00       9.48  -17.14    0.27
#  24  -26.30   -0.21    0.14    7.26    0.18    0.00    0.00     -18.92   21.51    0.53
#  25    0.89   -0.90    0.10   -0.40   -0.15    0.00    0.00      -0.46   -0.98   -0.37
#  26   -2.54   -0.96    0.10    1.38   -0.20    0.00    0.00      -2.22    3.32   -0.48
#  27   14.53   -0.78    0.03   -7.11    0.47    0.00    0.00       7.15  -25.33    1.69
#  28   -2.17   -0.58    0.07    0.73   -0.11    0.00    0.00      -2.06    3.00   -0.47
#  29    0.65   -0.65    0.16   -0.07   -0.10    0.00    0.00      -0.01   -0.29   -0.40
#  30   -5.96   -0.66    0.02    3.08   -0.18    0.00    0.00      -3.69   12.09   -0.70
#  31    4.25   -0.94    0.08   -3.04   -0.15    0.00    0.00       0.19   -9.00   -0.44
#  32   -4.82   -2.07    1.16    2.43   -0.40    0.00    0.00      -3.70    5.93   -0.97
#  33   12.12   -2.54    2.32   -6.51    0.33    0.00    0.00       5.73  -18.86    0.97
#  34  -16.68   -0.22    0.15    7.41    0.24    0.00    0.00      -9.09   18.14    0.59
#  35   -3.04   -1.10    0.30    1.69   -0.28    0.00    0.00      -2.43    5.84   -0.97
#  36    3.17   -0.74    0.05   -2.33   -0.11    0.00    0.00       0.04   -9.12   -0.44
#  37    1.15   -1.15    0.22   -0.61   -0.12    0.00    0.00      -0.51   -2.14   -0.42
#  38   -0.11   -0.01    0.00    0.03    0.00    0.00    0.00      -0.10    1.62   -0.28
#  39   -0.10   -0.02    0.00    0.03   -0.01    0.00    0.00      -0.08    1.54   -0.28
#  40   -1.88   -0.01    0.00    0.53    0.05    0.00    0.00      -1.31    6.03    0.53
#  41   -0.08   -0.01    0.00    0.03    0.00    0.00    0.00      -0.08    1.56   -0.28
#  42   -0.44   -0.20    0.05    0.12   -0.03    0.00    0.00      -0.49    0.91   -0.20
#  43   -0.62   -0.31    0.03    2.30   -0.07    0.00    0.00       1.33    6.93   -0.21
#  44   -2.81   -1.57    4.10    1.93   -0.13    0.00    0.00       1.52    4.19   -0.28
#  45   -2.30   -0.87    1.05    0.80   -0.09    0.00    0.00      -1.39    2.26   -0.24
#  46   -0.11   -0.82    0.60    0.18   -0.09    0.00    0.00      -0.24    0.47   -0.22
#  47   -1.61   -0.62    0.32    0.93   -0.11    0.00    0.00      -1.10    2.27   -0.28
#  48   -2.36   -0.49    0.44    2.21   -0.08    0.00    0.00      -0.29    7.43   -0.27
#  49   -5.01   -0.49    0.10    4.25   -0.13    0.00    0.00      -1.27    8.88   -0.27
#  50   -5.09   -0.92    1.45    2.93   -0.10    0.00    0.00      -1.73    8.17   -0.28
#  51   -3.01   -0.17    0.01    1.30   -0.05    0.00    0.00      -1.93    7.86   -0.28
#  52   -4.87   -0.55    0.24    2.05   -0.07    0.00    0.00      -3.21    5.53   -0.20
#  53   -3.70   -0.36    0.06    1.70   -0.06    0.00    0.00      -2.37    5.65   -0.20
#  54   -4.14   -0.49    0.10    1.94   -0.12    0.00    0.00      -2.71    4.44   -0.28
#  55   -2.23   -0.08    0.00    0.50   -0.02    0.00    0.00      -1.83    6.37   -0.20
#  56   -4.19   -0.40    0.14    1.41   -0.08    0.00    0.00      -3.12    5.23   -0.28
#  57   -4.73   -0.21    0.06    1.48   -0.04    0.00    0.00      -3.45    9.35   -0.28
#  58   -2.29   -0.11    0.00    0.82   -0.03    0.00    0.00      -1.61    7.52   -0.28
#  59   -3.34   -0.19    0.01    1.81   -0.05    0.00    0.00      -1.76    8.36   -0.21
#  60   -7.23   -0.95    1.74    4.17   -0.13    0.00    0.00      -2.39    9.21   -0.28
#  61   -3.24   -0.25    0.08    1.66   -0.05    0.00    0.00      -1.80    8.95   -0.28
#  62   -1.96   -0.28    0.11    1.40   -0.04    0.00    0.00      -0.76    7.84   -0.20
#  63   -1.91   -0.20    0.04    1.22   -0.04    0.00    0.00      -0.90    7.46   -0.22

@<TRIPOS>MOLECULE
          T526467        19
   63    68     0     0     0



@<TRIPOS>ATOM
      1 F1          5.2906   -13.7276    85.6632 F          1          -0.1266
      2 C1          5.2015   -13.1648    86.8882 C.ar       1           0.1329
      3 C2          4.3283   -12.1043    87.0990 C.ar       1          -0.1533
      4 C3          4.2241   -11.5222    88.3300 C.ar       1          -0.0288
      5 C4          5.0017   -11.9939    89.3929 C.ar       1           0.0364
      6 N1          5.1170   -11.6320    90.6940 N.2        1          -0.4671
      7 C5          5.9987   -12.3979    91.2877 C.2        1           0.3110
      8 N2          6.5036   -13.3029    90.3927 N.pl3      1          -0.5902
      9 C6          5.8855   -13.0668    89.1805 C.ar       1           0.0841
     10 C7          5.9745   -13.6503    87.9242 C.ar       1          -0.1533
     11 C8          6.3904   -12.2994    92.7107 C.ar       1          -0.0133
     12 C9          6.3418   -11.0699    93.3651 C.ar       1          -0.0554
     13 C10         6.7112   -10.9857    94.7033 C.ar       1          -0.0688
     14 C11         7.1277   -12.1301    95.3827 C.ar       1          -0.0935
     15 C12         7.1742   -13.3463    94.7299 C.ar       1          -0.1091
     16 C13         6.8040   -13.4386    93.4031 C.ar       1          -0.0878
     17 C14         6.6627    -9.6800    95.4069 C.ar       1          -0.0195
     18 C15         6.4163    -9.6331    96.7777 C.ar       1          -0.0742
     19 C16         6.3727    -8.4162    97.4271 C.ar       1          -0.1026
     20 C17         6.5728    -7.2443    96.7197 C.ar       1          -0.1039
     21 C18         6.8175    -7.2850    95.3592 C.ar       1          -0.1635
     22 C19         7.0340    -6.0041    94.5953 C.3        1           0.0458
     23 N3          5.7440    -5.5053    94.1000 N.4        1          -0.3855
     24 H1          5.8901    -4.6478    93.5889 H          1           0.4262
     25 C20         4.8512    -5.2491    95.2374 C.3        1          -0.0296
     26 C21         3.5481    -4.6217    94.7312 C.3        1           0.0839
     27 N4          2.9783    -5.5001    93.6978 N.pl3      1          -0.6051
     28 C22         3.8554    -5.9410    92.6021 C.3        1           0.0824
     29 C23         5.1429    -6.5070    93.2104 C.3        1          -0.0228
     30 C24         1.6474    -5.9029    93.7554 C.ar       1           0.3151
     31 C25         1.1661    -6.6286    94.8450 C.ar       1          -0.2074
     32 C26        -0.1594    -7.0084    94.8639 C.ar       1           0.1802
     33 N5         -0.9678    -6.6937    93.8691 N.ar       1          -0.4826
     34 H2         -1.8955    -6.9742    93.9095 H          1           0.4554
     35 C27        -0.5507    -6.0080    92.8213 C.ar       1           0.1801
     36 C28         0.7590    -5.5864    92.7280 C.ar       1          -0.2081
     37 C29         6.8692    -8.4971    94.7006 C.ar       1          -0.0902
     38 H3          3.7263   -11.7366    86.2812 H          1           0.1496
     39 H4          3.5426   -10.6986    88.4826 H          1           0.1447
     40 H5          7.1707   -13.9828    90.5759 H          1           0.4265
     41 H6          6.6482   -14.4778    87.7568 H          1           0.1411
     42 H7          6.0189   -10.1860    92.8351 H          1           0.1451
     43 H8          7.4150   -12.0650    96.4218 H          1           0.1267
     44 H9          7.4978   -14.2294    95.2607 H          1           0.1383
     45 H10         6.8380   -14.3932    92.8989 H          1           0.1292
     46 H11         6.2592   -10.5473    97.3307 H          1           0.1438
     47 H12         6.1817    -8.3787    98.4894 H          1           0.1418
     48 H13         6.5376    -6.2941    97.2319 H          1           0.1309
     49 H14         7.4827    -5.2600    95.2535 H          1           0.1433
     50 H15         7.6989    -6.1916    93.7524 H          1           0.1395
     51 H16         4.6296    -6.1882    95.7443 H          1           0.1389
     52 H17         5.3370    -4.5658    95.9340 H          1           0.1557
     53 H18         2.8439    -4.5234    95.5573 H          1           0.1355
     54 H19         3.7557    -3.6406    94.3042 H          1           0.1133
     55 H20         3.3542    -6.7149    92.0206 H          1           0.1363
     56 H21         4.0940    -5.0930    91.9600 H          1           0.1134
     57 H22         5.8438    -6.7515    92.4123 H          1           0.1553
     58 H23         4.9123    -7.4072    93.7801 H          1           0.1394
     59 H24         1.8223    -6.8897    95.6619 H          1           0.1805
     60 H25        -0.5407    -7.5708    95.7033 H          1           0.2123
     61 H26        -1.2448    -5.7707    92.0286 H          1           0.2123
     62 H27         1.0928    -5.0220    91.8698 H          1           0.1801
     63 H28         7.0652    -8.5281    93.6390 H          1           0.1349
@<TRIPOS>BOND
     1    1    2 1
     2    2   10 ar
     3    2    3 ar
     4    3    4 ar
     5    3   38 1
     6    4    5 ar
     7    4   39 1
     8    5    9 ar
     9    5    6 1
    10    6    7 2
    11    7    8 1
    12    7   11 1
    13    8    9 1
    14    8   40 1
    15    9   10 ar
    16   10   41 1
    17   11   16 ar
    18   11   12 ar
    19   12   13 ar
    20   12   42 1
    21   13   14 ar
    22   13   17 1
    23   14   15 ar
    24   14   43 1
    25   15   16 ar
    26   15   44 1
    27   16   45 1
    28   17   37 ar
    29   17   18 ar
    30   18   19 ar
    31   18   46 1
    32   19   20 ar
    33   19   47 1
    34   20   21 ar
    35   20   48 1
    36   21   22 1
    37   21   37 ar
    38   22   23 1
    39   22   49 1
    40   22   50 1
    41   23   24 1
    42   23   29 1
    43   23   25 1
    44   25   26 1
    45   25   51 1
    46   25   52 1
    47   26   27 1
    48   26   53 1
    49   26   54 1
    50   27   28 1
    51   27   30 1
    52   28   29 1
    53   28   55 1
    54   28   56 1
    55   29   57 1
    56   29   58 1
    57   30   36 ar
    58   30   31 ar
    59   31   32 ar
    60   31   59 1
    61   32   33 ar
    62   32   60 1
    63   33   34 1
    64   33   35 ar
    65   35   36 ar
    66   35   61 1
    67   36   62 1
    68   37   63 1
##########                 Name:              T524955
##########          Protonation:                   88
##########               SMILES:   Cc1c(c2ccccc2[nH]1)C3=CC[NH+](CC3)C[C@H]4C[C@@H]4C(=O)c5ccccc5
##########            Long Name:   l)-1,2,3,6-tetrahydropyridin-1-ium-1-yl]methyl]cyclopropyl]-phenyl-methanone
##########          FlexRecCode: 1
##########               Number:                  356
##########   Ligand Source File: /raidb/db2/rgc/tcams/tcams-0000043.db2.gz
##########           GlobalRank: 86
##########                 Rank:                    1
##########               Setnum:                   74
##########             Matchnum:                   51
##########                Cloud:                    1
##########        Electrostatic:           -36.015995
##########        Van der Waals:           -39.131790
##########  Ligand Polar Desolv:            13.076026
########## Ligand Apolar Desolv:            -6.606412
##########      Internal Energy:             0.000000
##########      Receptor Energy: 0.0
########## Receptor Desolvation:             0.000000
########## Receptor Hydrophobic:             0.000000
##########         Total Energy: -68.68
##########        Ligand Charge:             1.000000
##########            Arbitrary:    +999.9990
##########     heavy atom count:   28
##########           pose count:    1
##########        Ligand Energy:             0.000000
# num electro vdwattr vdwrepu polsolv apolsol rdesolv rhydroe totalscore fullpol fullapo
#   1    1.84   -1.56    0.27   -0.83   -0.12    0.00    0.00      -0.40   -1.44   -0.21
#   2   -1.65   -1.61    0.21    0.46   -0.38    0.00    0.00      -2.96    0.92   -0.76
#   3    1.92   -1.27    0.12   -0.81   -0.14    0.00    0.00      -0.18   -2.17   -0.38
#   4    0.45   -1.45    0.20   -0.42   -0.16    0.00    0.00      -1.39   -1.16   -0.44
#   5    0.02   -2.54    1.54   -0.26   -0.17    0.00    0.00      -1.41   -0.73   -0.47
#   6    0.22   -3.25    2.33   -0.53   -0.19    0.00    0.00      -1.41   -1.35   -0.47
#   7    0.76   -2.49    1.35   -0.40   -0.23    0.00    0.00      -1.01   -0.83   -0.47
#   8    0.88   -1.59    0.17   -0.50   -0.26    0.00    0.00      -1.30   -0.94   -0.48
#   9   -0.68   -1.52    0.26    0.06   -0.34    0.00    0.00      -2.22    0.13   -0.78
#  10    6.79   -1.78    0.47   -2.51    0.52    0.00    0.00       3.49   -5.39    1.11
#  11    0.01   -1.02    0.06   -0.36   -0.13    0.00    0.00      -1.44   -1.01   -0.37
#  12    4.22   -1.28    0.22   -1.20   -0.15    0.00    0.00       1.80   -3.44   -0.44
#  13   -1.19   -1.08    0.46    0.54   -0.14    0.00    0.00      -1.41    1.44   -0.38
#  14   10.16   -0.72    0.05   -3.68    0.08    0.00    0.00       5.90  -12.16    0.28
#  15   -8.13   -0.01    0.00    1.59    0.06    0.00    0.00      -6.49   15.06    0.54
#  16   -0.89   -0.94    0.12    0.63   -0.15    0.00    0.00      -1.23    1.59   -0.38
#  17    4.44   -0.65    0.05   -0.95   -0.10    0.00    0.00       2.78   -3.03   -0.32
#  18    3.29   -0.99    0.17   -1.35   -0.17    0.00    0.00       0.95   -3.30   -0.41
#  19    4.28   -1.46    0.48   -1.88   -0.15    0.00    0.00       1.26   -4.68   -0.37
#  20   -7.23   -1.94    0.73    2.03   -0.12    0.00    0.00      -6.52    5.20   -0.30
#  21    4.23   -1.85    1.29   -1.26    0.12    0.00    0.00       2.53   -4.08    0.39
#  22    3.88   -1.77    0.23   -1.05   -0.20    0.00    0.00       1.08   -2.14   -0.41
#  23    1.69   -2.77    0.66   -0.37   -0.25    0.00    0.00      -1.05   -0.67   -0.44
#  24    3.08   -3.12    0.80   -1.17   -0.30    0.00    0.00      -0.71   -1.82   -0.47
#  25    1.85   -2.84    0.67   -0.74   -0.32    0.00    0.00      -1.39   -1.07   -0.47
#  26    3.13   -2.51    0.41   -0.76   -0.30    0.00    0.00      -0.02   -1.20   -0.47
#  27    1.40   -1.98    0.31   -0.46   -0.24    0.00    0.00      -0.97   -0.87   -0.46
#  28    0.06   -0.80    0.07    0.28   -0.15    0.00    0.00      -0.53    0.76   -0.40
#  29    1.35   -0.89    0.10   -1.07   -0.10    0.00    0.00      -0.61   -2.81   -0.25
#  30   -1.38   -0.58    0.46    0.62   -0.13    0.00    0.00      -1.01    1.39   -0.28
#  31   -1.70   -0.62    0.13    1.56   -0.15    0.00    0.00      -0.78    2.76   -0.27
#  32   -1.63   -0.73    0.39    0.50   -0.15    0.00    0.00      -1.61    0.96   -0.28
#  33    0.30   -0.72    0.79    0.62   -0.07    0.00    0.00       0.91    2.42   -0.28
#  34   -0.05   -0.95    0.88    0.48   -0.10    0.00    0.00       0.26    1.29   -0.28
#  35   -2.06   -0.89    1.00    0.37   -0.13    0.00    0.00      -1.71    0.79   -0.28
#  36   -0.92   -0.35    0.03    0.30   -0.14    0.00    0.00      -1.07    0.63   -0.28
#  37   -5.68   -0.03    0.00    1.56    0.22    0.00    0.00      -3.93    4.24    0.60
#  38   -3.28   -0.68    0.65    0.41   -0.08    0.00    0.00      -2.99    1.41   -0.28
#  39   -5.73   -0.48    0.24    2.39   -0.11    0.00    0.00      -3.69    5.85   -0.27
#  40   -6.02   -0.64    1.08    1.00   -0.05    0.00    0.00      -4.63    3.95   -0.21
#  41   -4.83   -0.40    0.05    3.06   -0.11    0.00    0.00      -2.23    7.46   -0.26
#  42   -6.21   -0.57    0.35    2.12   -0.09    0.00    0.00      -4.40    6.66   -0.27
#  43   -2.51   -0.11    0.00    0.27   -0.02    0.00    0.00      -2.37    2.76   -0.22
#  44   -3.33   -0.25    0.03    0.15   -0.07    0.00    0.00      -3.47    0.61   -0.28
#  45   -3.13   -0.54    0.24    1.85   -0.11    0.00    0.00      -1.70    4.59   -0.28
#  46   -3.64   -1.05    1.06    2.34   -0.10    0.00    0.00      -1.39    5.08   -0.22
#  47   -2.90   -0.94    0.66    2.35   -0.11    0.00    0.00      -0.94    4.52   -0.21
#  48   -3.07   -1.08    0.65    1.61   -0.17    0.00    0.00      -2.06    2.60   -0.28
#  49   -3.14   -0.83    0.34    0.83   -0.16    0.00    0.00      -2.96    1.42   -0.28
#  50   -3.32   -0.66    0.16    0.48   -0.17    0.00    0.00      -3.51    0.79   -0.28
#  51   -3.96   -0.47    0.12    0.11   -0.10    0.00    0.00      -4.30    0.29   -0.26
#  52   -3.33   -0.53    0.24    1.74   -0.09    0.00    0.00      -1.96    5.66   -0.28
#  53   -2.94   -0.22    0.01    1.70   -0.06    0.00    0.00      -1.51    7.10   -0.27
#  54   -0.30   -0.45    0.29    0.73   -0.08    0.00    0.00       0.19    2.67   -0.28
#  55   -1.43   -0.41    0.08    0.90   -0.11    0.00    0.00      -0.97    2.34   -0.28

@<TRIPOS>MOLECULE
          T524955        88
   55    59     0     0     0



@<TRIPOS>ATOM
      1 C1          8.0241    -7.4344    98.5726 C.3        1          -0.1005
      2 C2          7.7714    -8.7004    97.7950 C.2        1           0.1204
      3 C3          6.9666    -8.8011    96.7060 C.2        1          -0.1850
      4 C4          7.0159   -10.2083    96.2741 C.ar       1          -0.0858
      5 C5          6.4178   -10.9242    95.2385 C.ar       1          -0.0827
      6 C6          6.6727   -12.2602    95.1007 C.ar       1          -0.1322
      7 C7          7.5230   -12.9094    95.9849 C.ar       1          -0.0956
      8 C8          8.1242   -12.2199    97.0150 C.ar       1          -0.1211
      9 C9          7.8778   -10.8593    97.1726 C.ar       1           0.0940
     10 N1          8.3213    -9.9172    98.0754 N.pl3      1          -0.5841
     11 C10         6.1930    -7.7125    96.0775 C.2        1          -0.0004
     12 C11         6.7548    -7.0058    95.1183 C.2        1          -0.1912
     13 C12         6.0551    -5.8753    94.4205 C.3        1           0.0342
     14 N2          4.6053    -5.9633    94.6307 N.4        1          -0.3843
     15 H1          4.2446    -6.7790    94.1589 H          1           0.4281
     16 C13         3.9570    -4.7588    94.0951 C.3        1           0.0263
     17 C14         2.4733    -5.0432    93.8528 C.3        1          -0.1832
     18 C15         1.4997    -4.7359    94.9924 C.3        1          -0.1293
     19 C16         1.5312    -3.8420    93.7510 C.3        1          -0.1840
     20 C17         0.3746    -3.9442    92.7904 C.2        1           0.4252
     21 O1          0.4761    -4.6203    91.7890 O.2        1          -0.4459
     22 C18        -0.8782    -3.2235    93.0678 C.ar       1          -0.1760
     23 C19        -1.3562    -2.2707    92.1626 C.ar       1          -0.0737
     24 C20        -2.5311    -1.6001    92.4294 C.ar       1          -0.1320
     25 C21        -3.2368    -1.8676    93.5896 C.ar       1          -0.0778
     26 C22        -2.7701    -2.8088    94.4906 C.ar       1          -0.1287
     27 C23        -1.5999    -3.4920    94.2354 C.ar       1          -0.0571
     28 C24         4.3361    -6.0695    96.0734 C.3        1          -0.0029
     29 C25         4.7890    -7.4535    96.5508 C.3        1          -0.1140
     30 H2          7.4573    -6.6160    98.1286 H          1           0.0841
     31 H3          7.7102    -7.5745    99.6069 H          1           0.0826
     32 H4          9.0877    -7.1969    98.5446 H          1           0.0768
     33 H5          5.7548   -10.4250    94.5474 H          1           0.1163
     34 H6          6.2087   -12.8145    94.2984 H          1           0.1266
     35 H7          7.7152   -13.9653    95.8643 H          1           0.1312
     36 H8          8.7842   -12.7337    97.6982 H          1           0.1253
     37 H9          8.9341   -10.0942    98.8062 H          1           0.4209
     38 H10         7.7639    -7.2502    94.8209 H          1           0.1494
     39 H11         6.4197    -4.9271    94.8153 H          1           0.1378
     40 H12         6.2681    -5.9237    93.3526 H          1           0.1381
     41 H13         4.0583    -3.9429    94.8108 H          1           0.1364
     42 H14         4.4315    -4.4782    93.1548 H          1           0.1356
     43 H15         2.2568    -5.9073    93.2247 H          1           0.1360
     44 H16         0.6425    -5.3979    95.1143 H          1           0.1190
     45 H17         1.9163    -4.3311    95.9147 H          1           0.1194
     46 H18         1.9684    -2.8490    93.8568 H          1           0.1390
     47 H19        -0.8065    -2.0606    91.2570 H          1           0.1295
     48 H20        -2.9014    -0.8637    91.7315 H          1           0.1330
     49 H21        -4.1564    -1.3390    93.7929 H          1           0.1329
     50 H22        -3.3263    -3.0117    95.3939 H          1           0.1345
     51 H23        -1.2393    -4.2293    94.9372 H          1           0.1352
     52 H24         4.8881    -5.2955    96.6066 H          1           0.1332
     53 H25         3.2679    -5.9522    96.2560 H          1           0.1365
     54 H26         4.1234    -8.2163    96.1473 H          1           0.1068
     55 H27         4.7612    -7.4868    97.6400 H          1           0.1231
@<TRIPOS>BOND
     1    1    2 1
     2    1   30 1
     3    1   31 1
     4    1   32 1
     5    2   10 1
     6    2    3 2
     7    3    4 1
     8    3   11 1
     9    4    9 ar
    10    4    5 ar
    11    5    6 ar
    12    5   33 1
    13    6    7 ar
    14    6   34 1
    15    7    8 ar
    16    7   35 1
    17    8    9 ar
    18    8   36 1
    19    9   10 1
    20   10   37 1
    21   11   29 1
    22   11   12 2
    23   12   13 1
    24   12   38 1
    25   13   14 1
    26   13   39 1
    27   13   40 1
    28   14   15 1
    29   14   16 1
    30   14   28 1
    31   16   17 1
    32   16   41 1
    33   16   42 1
    34   17   19 1
    35   17   18 1
    36   17   43 1
    37   18   19 1
    38   18   44 1
    39   18   45 1
    40   19   20 1
    41   19   46 1
    42   20   21 2
    43   20   22 1
    44   22   27 ar
    45   22   23 ar
    46   23   24 ar
    47   23   47 1
    48   24   25 ar
    49   24   48 1
    50   25   26 ar
    51   25   49 1
    52   26   27 ar
    53   26   50 1
    54   27   51 1
    55   28   29 1
    56   28   52 1
    57   28   53 1
    58   29   54 1
    59   29   55 1
##########                 Name:              T528502
##########          Protonation:                  100
##########               SMILES:   Cc1cccc(c1)CC(=[NH2+])NCCCCCCNC(=[NH2+])Cc2cccc(c2)C
##########            Long Name:   iumylidene-2-(m-tolyl)ethyl]amino]hexylamino]-2-(m-tolyl)ethylidene]ammonium
##########          FlexRecCode: 1
##########               Number:                  164
##########   Ligand Source File: /raidb/db2/rgc/tcams/tcams-0000447.db2.gz
##########           GlobalRank: 87
##########                 Rank:                    1
##########               Setnum:                  100
##########             Matchnum:                 3190
##########                Cloud:                    1
##########        Electrostatic:           -58.438759
##########        Van der Waals:           -21.412079
##########  Ligand Polar Desolv:            14.081828
########## Ligand Apolar Desolv:            -2.887956
##########      Internal Energy:             0.000000
##########      Receptor Energy: 0.0
########## Receptor Desolvation:             0.000000
########## Receptor Hydrophobic:             0.000000
##########         Total Energy: -68.66
##########        Ligand Charge:             2.000000
##########            Arbitrary:    +999.9990
##########     heavy atom count:   28
##########           pose count:    1
##########        Ligand Energy:             0.000000
# num electro vdwattr vdwrepu polsolv apolsol rdesolv rhydroe totalscore fullpol fullapo
#   1    3.35   -2.65    1.99   -1.11   -0.11    0.00    0.00       1.48   -2.08   -0.20
#   2    1.69   -2.09    1.03   -1.09   -0.19    0.00    0.00      -0.65   -2.40   -0.41
#   3    3.44   -2.36    0.96   -1.35   -0.22    0.00    0.00       0.47   -2.73   -0.44
#   4    3.33   -1.74    0.35   -0.86   -0.15    0.00    0.00       0.93   -2.02   -0.36
#   5    2.29   -1.58    0.45   -1.11   -0.11    0.00    0.00      -0.06   -2.39   -0.24
#   6  -16.54   -1.55    0.27    7.55   -0.77    0.00    0.00     -11.03   19.63   -1.99
#   7   31.67   -4.07    3.46  -11.48    0.37    0.00    0.00      19.95  -26.33    0.84
#   8  -24.99   -0.12    0.01    8.39    0.24    0.00    0.00     -16.47   16.81    0.48
#   9  -18.34   -0.06    0.00    6.38    0.21    0.00    0.00     -11.81   17.35    0.58
#  10   14.15   -0.82    0.05   -6.59    0.46    0.00    0.00       7.25  -23.54    1.65
#  11   -1.02   -0.55    0.08    0.57   -0.08    0.00    0.00      -1.00    2.53   -0.37
#  12    0.94   -0.27    0.01   -0.69   -0.04    0.00    0.00      -0.04   -4.31   -0.22
#  13    0.59   -0.38    0.03   -0.69   -0.04    0.00    0.00      -0.48   -3.87   -0.22
#  14    0.92   -0.27    0.01   -0.55   -0.03    0.00    0.00       0.09   -3.87   -0.22
#  15    0.43   -0.66    0.23   -0.77   -0.04    0.00    0.00      -0.81   -4.31   -0.22
#  16   -0.61   -0.26    0.01    0.37   -0.05    0.00    0.00      -0.53    2.52   -0.37
#  17   13.11   -0.59    0.04   -4.85    0.34    0.00    0.00       8.05  -23.52    1.65
#  18  -12.01   -0.73    0.09    4.30   -0.44    0.00    0.00      -8.78   19.60   -1.99
#  19   25.06   -2.63    1.79   -8.33    0.27    0.00    0.00      16.15  -26.30    0.84
#  20  -22.75   -0.15    0.04    6.54    0.22    0.00    0.00     -16.10   17.37    0.58
#  21  -13.62   -0.03    0.00    4.52    0.13    0.00    0.00      -8.99   16.78    0.48
#  22    0.94   -0.18    0.00   -0.27   -0.03    0.00    0.00       0.47   -2.39   -0.24
#  23    1.66   -0.34    0.01   -0.28   -0.05    0.00    0.00       1.00   -2.02   -0.36
#  24    1.15   -0.35    0.01   -0.35   -0.06    0.00    0.00       0.40   -2.62   -0.44
#  25    0.72   -0.52    0.02   -0.52   -0.09    0.00    0.00      -0.38   -2.37   -0.41
#  26    0.41   -0.36    0.02   -0.44   -0.04    0.00    0.00      -0.41   -2.17   -0.20
#  27    1.91   -1.10    0.14   -0.94   -0.14    0.00    0.00      -0.13   -2.97   -0.45
#  28    1.98   -1.08    0.19   -0.96   -0.15    0.00    0.00      -0.01   -3.05   -0.47
#  29    1.62   -0.53    0.02   -0.56   -0.09    0.00    0.00       0.47   -2.81   -0.45
#  30    2.15   -1.34    0.14   -1.08   -0.18    0.00    0.00      -0.31   -2.69   -0.45
#  31    1.42   -1.55    0.20   -1.25   -0.19    0.00    0.00      -1.37   -3.03   -0.47
#  32    1.59   -1.41    0.24   -1.25   -0.19    0.00    0.00      -1.02   -2.96   -0.45
#  33   -2.67   -0.84    0.37    0.74   -0.17    0.00    0.00      -2.58    1.20   -0.28
#  34   -1.66   -0.96    0.87    0.82   -0.15    0.00    0.00      -1.07    1.54   -0.28
#  35   -1.87   -1.83    4.47    0.13   -0.13    0.00    0.00       0.77    0.28   -0.28
#  36   -5.19   -0.59    0.16    2.61   -0.14    0.00    0.00      -3.15    5.07   -0.28
#  37   -3.69   -0.59    0.26    2.20   -0.10    0.00    0.00      -1.92    6.12   -0.28
#  38   -4.94   -1.01    1.01    3.23   -0.15    0.00    0.00      -1.86    6.19   -0.28
#  39   -9.32   -0.01    0.00    1.80    0.06    0.00    0.00      -7.47   16.34    0.57
#  40   -0.90   -0.36    0.23    0.85   -0.05    0.00    0.00      -0.23    4.32   -0.27
#  41   -1.69   -0.17    0.02    0.59   -0.04    0.00    0.00      -1.30    3.62   -0.27
#  42   -0.62   -0.10    0.00    0.21   -0.03    0.00    0.00      -0.53    2.20   -0.28
#  43   -0.23   -0.05    0.00    0.14   -0.02    0.00    0.00      -0.16    2.64   -0.28
#  44   -0.47   -0.15    0.02    0.28   -0.03    0.00    0.00      -0.35    2.26   -0.28
#  45   -0.04   -0.17    0.03    0.30   -0.04    0.00    0.00       0.07    1.88   -0.28
#  46   -0.40   -0.04    0.00    0.09   -0.01    0.00    0.00      -0.37    1.87   -0.28
#  47   -1.24   -0.08    0.00    0.16   -0.02    0.00    0.00      -1.18    2.25   -0.28
#  48   -0.20   -0.26    0.09    0.44   -0.05    0.00    0.00       0.03    2.65   -0.28
#  49    0.20   -0.71    1.28    0.44   -0.06    0.00    0.00       1.16    2.22   -0.28
#  50   -0.65   -0.08    0.00    0.29   -0.02    0.00    0.00      -0.46    3.62   -0.27
#  51   -0.62   -0.04    0.00    0.17   -0.01    0.00    0.00      -0.50    4.32   -0.27
#  52  -11.39   -0.01    0.00    2.57    0.09    0.00    0.00      -8.75   16.30    0.57
#  53   -1.24   -0.04    0.00    0.25   -0.01    0.00    0.00      -1.04    6.23   -0.28
#  54   -1.28   -0.03    0.00    0.21   -0.01    0.00    0.00      -1.11    6.07   -0.28
#  55   -1.05   -0.06    0.00    0.28   -0.02    0.00    0.00      -0.84    5.28   -0.28
#  56   -0.33   -0.22    0.04    0.26   -0.05    0.00    0.00      -0.30    1.40   -0.28
#  57   -0.54   -0.11    0.00    0.03   -0.03    0.00    0.00      -0.65    0.28   -0.28
#  58   -0.13   -0.05    0.00    0.09   -0.01    0.00    0.00      -0.11    1.75   -0.28
#  59   -3.70   -0.49    0.21    0.30   -0.09    0.00    0.00      -3.78    0.89   -0.28
#  60   -2.70   -0.38    0.16    0.45   -0.07    0.00    0.00      -2.54    1.77   -0.28
#  61   -1.34   -0.09    0.00    0.44   -0.02    0.00    0.00      -1.01    5.22   -0.28
#  62   -2.35   -0.23    0.01    1.42   -0.07    0.00    0.00      -1.22    5.42   -0.28
#  63   -0.90   -0.60    0.29    0.81   -0.11    0.00    0.00      -0.51    2.05   -0.28
#  64   -1.92   -0.24    0.01    0.23   -0.07    0.00    0.00      -1.98    0.90   -0.28

@<TRIPOS>MOLECULE
          T528502       100
   64    65     0     0     0



@<TRIPOS>ATOM
      1 C1          8.1838    -5.6634    96.1730 C.3        1          -0.1267
      2 C2          6.6963    -5.8880    96.2630 C.ar       1          -0.0705
      3 C3          5.8235    -4.9609    95.7248 C.ar       1          -0.1091
      4 C4          4.4592    -5.1668    95.8073 C.ar       1          -0.1213
      5 C5          3.5077    -4.1559    95.2211 C.3        1          -0.0741
      6 C6          3.2202    -4.5106    93.7848 C.cat      1           0.5423
      7 N1          3.9650    -4.0362    92.8400 N.pl3      1          -0.7278
      8 H1          4.7088    -3.4521    93.0558 H          1           0.4287
      9 H2          3.7800    -4.2646    91.9157 H          1           0.4500
     10 N2          2.1697    -5.3357    93.4802 N.pl3      1          -0.6640
     11 C7          1.8903    -5.6807    92.0841 C.3        1           0.0710
     12 C8          1.2591    -7.0729    92.0192 C.3        1          -0.1345
     13 C9          2.2253    -8.0991    92.6145 C.3        1          -0.1187
     14 C10         3.5308    -8.0933    91.8165 C.3        1          -0.1188
     15 C11         4.4968    -9.1195    92.4119 C.3        1          -0.1344
     16 C12         5.8022    -9.1137    91.6140 C.3        1           0.0709
     17 N3          6.4066    -7.7806    91.6760 N.pl3      1          -0.6642
     18 C13         7.1705    -7.3256    90.6338 C.cat      1           0.5421
     19 N4          7.7040    -6.1489    90.6885 N.pl3      1          -0.7276
     20 H3          7.5634    -5.5883    91.4675 H          1           0.4501
     21 H4          8.2449    -5.8268    89.9505 H          1           0.4287
     22 C14         7.3893    -8.1965    89.4235 C.3        1          -0.0742
     23 C15         8.2579    -7.4678    88.4307 C.ar       1          -0.1214
     24 C16         9.6327    -7.5999    88.4874 C.ar       1          -0.1073
     25 C17        10.4295    -6.9315    87.5768 C.ar       1          -0.0730
     26 C18        11.9283    -7.0751    87.6389 C.3        1          -0.1250
     27 C19         9.8513    -6.1315    86.6089 C.ar       1          -0.0967
     28 C20         8.4765    -5.9998    86.5519 C.ar       1          -0.1045
     29 C21         7.6795    -6.6717    87.4599 C.ar       1          -0.1127
     30 C22         3.9674    -6.3002    96.4274 C.ar       1          -0.1115
     31 C23         4.8402    -7.2275    96.9652 C.ar       1          -0.1062
     32 C24         6.2048    -7.0237    96.8788 C.ar       1          -0.0970
     33 H5          8.3788    -4.7228    95.6580 H          1           0.0774
     34 H6          8.6065    -5.6224    97.1768 H          1           0.0733
     35 H7          8.6421    -6.4827    95.6189 H          1           0.0766
     36 H8          6.2077    -4.0755    95.2400 H          1           0.1272
     37 H9          2.5777    -4.1599    95.7895 H          1           0.1354
     38 H10         3.9576    -3.1641    95.2671 H          1           0.1366
     39 H11         1.6112    -5.6916    94.1889 H          1           0.4408
     40 H12         1.2019    -4.9495    91.6600 H          1           0.0962
     41 H13         2.8203    -5.6764    91.5156 H          1           0.0950
     42 H14         0.3291    -7.0770    92.5876 H          1           0.0843
     43 H15         1.0512    -7.3295    90.9805 H          1           0.0848
     44 H16         2.4332    -7.8424    93.6532 H          1           0.0748
     45 H17         1.7755    -9.0909    92.5683 H          1           0.0744
     46 H18         3.3227    -8.3500    90.7778 H          1           0.0744
     47 H19         3.9804    -7.1015    91.8627 H          1           0.0749
     48 H20         4.7048    -8.8628    93.4506 H          1           0.0847
     49 H21         4.0471   -10.1113    92.3658 H          1           0.0842
     50 H22         6.4907    -9.8448    92.0380 H          1           0.0950
     51 H23         5.5944    -9.3703    90.5752 H          1           0.0963
     52 H24         6.2661    -7.2202    92.4552 H          1           0.4407
     53 H25         7.8802    -9.1216    89.7255 H          1           0.1370
     54 H26         6.4283    -8.4283    88.9641 H          1           0.1351
     55 H27        10.0845    -8.2251    89.2434 H          1           0.1253
     56 H28        12.3834    -6.4793    86.8476 H          1           0.0756
     57 H29        12.2869    -6.7272    88.6077 H          1           0.0766
     58 H30        12.1987    -8.1227    87.5062 H          1           0.0718
     59 H31        10.4738    -5.6093    85.8975 H          1           0.1338
     60 H32         8.0248    -5.3745    85.7959 H          1           0.1351
     61 H33         6.6050    -6.5719    87.4128 H          1           0.1273
     62 H34         2.9015    -6.4611    96.4920 H          1           0.1254
     63 H35         4.4561    -8.1129    97.4500 H          1           0.1336
     64 H36         6.8867    -7.7502    97.2954 H          1           0.1338
@<TRIPOS>BOND
     1    1    2 1
     2    1   33 1
     3    1   34 1
     4    1   35 1
     5    2   32 ar
     6    2    3 ar
     7    3    4 ar
     8    3   36 1
     9    4    5 1
    10    4   30 ar
    11    5    6 1
    12    5   37 1
    13    5   38 1
    14    6    7 2
    15    6   10 1
    16    7    8 1
    17    7    9 1
    18   10   11 1
    19   10   39 1
    20   11   12 1
    21   11   40 1
    22   11   41 1
    23   12   13 1
    24   12   42 1
    25   12   43 1
    26   13   14 1
    27   13   44 1
    28   13   45 1
    29   14   15 1
    30   14   46 1
    31   14   47 1
    32   15   16 1
    33   15   48 1
    34   15   49 1
    35   16   17 1
    36   16   50 1
    37   16   51 1
    38   17   18 1
    39   17   52 1
    40   18   19 2
    41   18   22 1
    42   19   20 1
    43   19   21 1
    44   22   23 1
    45   22   53 1
    46   22   54 1
    47   23   29 ar
    48   23   24 ar
    49   24   25 ar
    50   24   55 1
    51   25   26 1
    52   25   27 ar
    53   26   56 1
    54   26   57 1
    55   26   58 1
    56   27   28 ar
    57   27   59 1
    58   28   29 ar
    59   28   60 1
    60   29   61 1
    61   30   31 ar
    62   30   62 1
    63   31   32 ar
    64   31   63 1
    65   32   64 1
##########                 Name:              T537253
##########          Protonation:                   99
##########               SMILES:   C[C@H](CCc1cccc(c1)F)[NH2+]C[C@H](c2ccc(c(c2)C(=O)OC)O)O
##########            Long Name:   propyl]-[(2S)-2-hydroxy-2-(4-hydroxy-3-methoxycarbonyl-phenyl)ethyl]ammonium
##########          FlexRecCode: 1
##########               Number:                   50
##########   Ligand Source File: /raidb/db2/rgc/tcams/tcams-0001645.db2.gz
##########           GlobalRank: 88
##########                 Rank:                    1
##########               Setnum:                  199
##########             Matchnum:                 2547
##########                Cloud:                    1
##########        Electrostatic:           -62.814270
##########        Van der Waals:           -19.971298
##########  Ligand Polar Desolv:            16.381451
########## Ligand Apolar Desolv:            -2.245012
##########      Internal Energy:             0.000000
##########      Receptor Energy: 0.0
########## Receptor Desolvation:             0.000000
########## Receptor Hydrophobic:             0.000000
##########         Total Energy: -68.65
##########        Ligand Charge:             1.000000
##########            Arbitrary:    +999.9990
##########     heavy atom count:   26
##########           pose count:    1
##########        Ligand Energy:             0.000000
# num electro vdwattr vdwrepu polsolv apolsol rdesolv rhydroe totalscore fullpol fullapo
#   1   -0.05   -0.63    0.11    0.06    0.01    0.00    0.00      -0.50    0.20    0.04
#   2    0.97   -0.83    0.08   -0.92    0.10    0.00    0.00      -0.61   -2.86    0.31
#   3   -2.49   -0.53    0.02    0.63   -0.04    0.00    0.00      -2.41    2.74   -0.16
#   4    1.27   -0.30    0.00   -0.06   -0.08    0.00    0.00       0.83   -0.44   -0.58
#   5    2.25   -0.59    0.02   -0.56   -0.10    0.00    0.00       1.02   -2.38   -0.41
#   6    0.50   -0.68    0.03   -0.10   -0.11    0.00    0.00      -0.34   -0.39   -0.43
#   7    4.41   -1.20    0.12   -1.00   -0.12    0.00    0.00       2.21   -2.87   -0.35
#   8    1.42   -1.85    0.49   -0.22   -0.19    0.00    0.00      -0.35   -0.52   -0.44
#   9    4.29   -1.72    0.44   -1.17   -0.20    0.00    0.00       1.64   -2.73   -0.46
#  10   -4.87   -1.21    0.24    0.33   -0.11    0.00    0.00      -5.62    0.93   -0.31
#  11   14.87   -2.72    2.65   -1.26    0.22    0.00    0.00      13.76   -2.82    0.49
#  12   -5.43   -1.88    0.80    2.16   -0.06    0.00    0.00      -4.41    4.69   -0.14
#  13   27.23   -4.69    6.53   -6.96    0.67    0.00    0.00      22.78  -17.06    1.64
#  14    2.02   -1.74    0.56   -0.55   -0.18    0.00    0.00       0.11   -1.09   -0.36
#  15   20.33   -1.88    1.74   -7.75    0.27    0.00    0.00      12.71  -18.32    0.63
#  16  -12.26   -0.01    0.00    2.64    0.06    0.00    0.00      -9.58   18.06    0.42
#  17  -23.90   -0.14    0.06    5.19    0.16    0.00    0.00     -18.62   18.14    0.56
#  18   -0.86   -1.34    0.28    1.29   -0.11    0.00    0.00      -0.74    2.71   -0.24
#  19    7.90   -3.46    2.52   -3.54   -0.11    0.00    0.00       3.31   -6.00   -0.19
#  20    3.26   -1.22    0.39   -1.61   -0.08    0.00    0.00       0.73   -4.12   -0.21
#  21    1.29   -0.69    0.04   -0.97   -0.08    0.00    0.00      -0.42   -2.63   -0.21
#  22    0.58   -1.27    0.14   -0.26   -0.13    0.00    0.00      -0.94   -0.73   -0.36
#  23    1.28   -1.52    0.25   -0.84   -0.18    0.00    0.00      -1.00   -2.09   -0.45
#  24    0.64   -1.57    0.31   -0.67   -0.21    0.00    0.00      -1.50   -1.48   -0.47
#  25    0.81   -1.54    0.20   -0.79   -0.21    0.00    0.00      -1.53   -1.79   -0.47
#  26   -0.13   -2.22    0.88   -0.04   -0.13    0.00    0.00      -1.63   -0.11   -0.34
#  27   -0.12   -2.19    1.70   -0.27   -0.18    0.00    0.00      -1.05   -0.73   -0.48
#  28    0.32   -1.97    1.00   -0.75   -0.15    0.00    0.00      -1.54   -2.25   -0.45
#  29   -0.09   -0.48    0.50    0.07   -0.09    0.00    0.00      -0.09    0.23   -0.28
#  30   -0.21   -0.12    0.01    0.32   -0.04    0.00    0.00      -0.05    2.13   -0.28
#  31   -0.06   -0.12    0.01    0.03   -0.04    0.00    0.00      -0.18    0.22   -0.28
#  32   -2.70   -0.12    0.01    0.51   -0.04    0.00    0.00      -2.34    3.94   -0.27
#  33   -3.58   -1.04    1.29    2.60   -0.10    0.00    0.00      -0.83    6.24   -0.23
#  34   -5.50   -0.76    0.74    0.94   -0.13    0.00    0.00      -4.71    2.07   -0.28
#  35  -21.92   -0.34    0.39    1.40    0.58    0.00    0.00     -19.89    2.96    1.22
#  36   -5.02   -1.36    2.82    2.73   -0.14    0.00    0.00      -0.97    5.27   -0.27
#  37  -30.86   -0.57    0.56    6.64    0.49    0.00    0.00     -23.74   13.51    1.00
#  38   -7.08   -0.87    0.40    3.21   -0.12    0.00    0.00      -4.46    5.67   -0.22
#  39   -4.56   -0.53    0.13    2.95   -0.12    0.00    0.00      -2.13    6.79   -0.28
#  40   -3.78   -0.65    0.64    2.73   -0.12    0.00    0.00      -1.19    6.23   -0.28
#  41   -2.96   -1.16    0.98    1.68   -0.18    0.00    0.00      -1.63    2.59   -0.28
#  42   -4.08   -1.82    3.35    1.78   -0.12    0.00    0.00      -0.89    3.01   -0.21
#  43   -4.92   -1.43    1.12    0.86   -0.18    0.00    0.00      -4.55    1.33   -0.28
#  44   -2.14   -0.37    0.15    0.79   -0.07    0.00    0.00      -1.64    3.35   -0.28
#  45   -2.52   -0.88    0.84    0.62   -0.10    0.00    0.00      -2.04    1.66   -0.28
#  46   -1.35   -0.26    0.02    0.84   -0.08    0.00    0.00      -0.83    3.01   -0.28
#  47   -0.88   -0.17    0.01    0.83   -0.04    0.00    0.00      -0.25    5.16   -0.22
#  48   -1.81   -0.29    0.03    1.50   -0.08    0.00    0.00      -0.66    5.03   -0.28
#  49   -1.23   -0.31    0.05    0.66   -0.09    0.00    0.00      -0.92    2.04   -0.28
#  50   -1.15   -0.32    0.04    0.19   -0.11    0.00    0.00      -1.35    0.48   -0.28
#  51    0.07   -0.48    0.38    0.49   -0.06    0.00    0.00       0.40    2.23   -0.28

@<TRIPOS>MOLECULE
          T537253        99
   51    52     0     0     0



@<TRIPOS>ATOM
      1 C1         -0.2751    -9.7558    92.1792 C.3        1           0.0336
      2 O1          0.1475    -8.7645    93.1177 O.3        1          -0.3548
      3 C2          0.7069    -7.6460    92.6159 C.2        1           0.4986
      4 O2          0.8325    -7.5160    91.4144 O.2        1          -0.4750
      5 C3          1.1666    -6.5804    93.5246 C.ar       1          -0.1492
      6 C4          2.2400    -5.7620    93.1622 C.ar       1          -0.0266
      7 C5          2.6647    -4.7678    94.0161 C.ar       1          -0.1683
      8 C6          2.0329    -4.5752    95.2341 C.ar       1          -0.0545
      9 C7          0.9713    -5.3762    95.6049 C.ar       1          -0.1498
     10 C8          0.5261    -6.3780    94.7552 C.ar       1           0.1996
     11 O3         -0.5204    -7.1621    95.1156 O.3        1          -0.4756
     12 C9          3.8222    -3.8861    93.6240 C.3        1           0.1391
     13 O4          4.3030    -4.2760    92.3360 O.3        1          -0.5453
     14 C10         4.9452    -4.0312    94.6530 C.3        1          -0.0488
     15 N1          5.7047    -5.2584    94.3793 N.4        1          -0.5061
     16 H1          5.0889    -6.0555    94.4390 H          1           0.4299
     17 H2          6.1017    -5.2088    93.4529 H          1           0.4275
     18 C11         6.7829    -5.3976    95.3673 C.3        1           0.0262
     19 C12         7.9581    -4.5024    94.9691 C.3        1          -0.1854
     20 C13         7.2456    -6.8552    95.4153 C.3        1          -0.1434
     21 C14         6.2707    -7.6720    96.2658 C.3        1          -0.0907
     22 C15         6.7264    -9.1076    96.3132 C.ar       1          -0.0717
     23 C16         7.5867    -9.5270    97.3110 C.ar       1          -0.1287
     24 C17         8.0059   -10.8434    97.3554 C.ar       1          -0.0828
     25 C18         7.5649   -11.7422    96.4025 C.ar       1          -0.1471
     26 C19         6.7030   -11.3235    95.4033 C.ar       1           0.1084
     27 F1          6.2712   -12.2012    94.4714 F          1          -0.1326
     28 C20         6.2796   -10.0056    95.3628 C.ar       1          -0.1497
     29 H3         -0.7065   -10.6020    92.7140 H          1           0.0652
     30 H4         -1.0231    -9.3285    91.5114 H          1           0.1078
     31 H5          0.5821   -10.0931    91.5963 H          1           0.0655
     32 H6          2.7360    -5.9089    92.2141 H          1           0.1477
     33 H7          2.3730    -3.7938    95.8976 H          1           0.1349
     34 H8          0.4841    -5.2196    96.5560 H          1           0.1500
     35 H9         -0.8947    -6.9454    95.9806 H          1           0.4092
     36 H10         3.4927    -2.8477    93.5898 H          1           0.1339
     37 H11         5.0500    -3.7501    92.0192 H          1           0.3889
     38 H12         5.6104    -3.1702    94.5884 H          1           0.1477
     39 H13         4.5165    -4.0848    95.6536 H          1           0.1385
     40 H14         6.4162    -5.1002    96.3497 H          1           0.1415
     41 H15         8.7582    -4.6058    95.7021 H          1           0.0842
     42 H16         8.3249    -4.7998    93.9867 H          1           0.0827
     43 H17         7.6286    -3.4639    94.9349 H          1           0.1081
     44 H18         7.2736    -7.2611    94.4041 H          1           0.0938
     45 H19         8.2418    -6.9059    95.8548 H          1           0.1167
     46 H20         6.2428    -7.2660    97.2771 H          1           0.0907
     47 H21         5.2746    -7.6212    95.8263 H          1           0.0718
     48 H22         7.9319    -8.8254    98.0560 H          1           0.1279
     49 H23         8.6785   -11.1697    98.1348 H          1           0.1384
     50 H24         7.8927   -12.7707    96.4372 H          1           0.1413
     51 H25         5.6037    -9.6789    94.5863 H          1           0.1367
@<TRIPOS>BOND
     1    1    2 1
     2    1   29 1
     3    1   30 1
     4    1   31 1
     5    2    3 1
     6    3    4 2
     7    3    5 1
     8    5   10 ar
     9    5    6 ar
    10    6    7 ar
    11    6   32 1
    12    7    8 ar
    13    7   12 1
    14    8    9 ar
    15    8   33 1
    16    9   10 ar
    17    9   34 1
    18   10   11 1
    19   11   35 1
    20   12   13 1
    21   12   14 1
    22   12   36 1
    23   13   37 1
    24   14   15 1
    25   14   38 1
    26   14   39 1
    27   15   16 1
    28   15   17 1
    29   15   18 1
    30   18   19 1
    31   18   20 1
    32   18   40 1
    33   19   41 1
    34   19   42 1
    35   19   43 1
    36   20   21 1
    37   20   44 1
    38   20   45 1
    39   21   22 1
    40   21   46 1
    41   21   47 1
    42   22   28 ar
    43   22   23 ar
    44   23   24 ar
    45   23   48 1
    46   24   25 ar
    47   24   49 1
    48   25   26 ar
    49   25   50 1
    50   26   27 1
    51   26   28 ar
    52   28   51 1
##########                 Name:              T527707
##########          Protonation:                   45
##########               SMILES:   [H]/N=C/1\NC(=[NH2+])NC(N1OCOc2cc(c(cc2Cl)Cl)Cl)(C)C
##########            Long Name:   ethyl-5-[(2,4,5-trichlorophenoxy)methoxy]-1,3,5-triazinan-2-ylidene]ammonium
##########          FlexRecCode: 1
##########               Number:                  324
##########   Ligand Source File: /raidb/db2/rgc/tcams/tcams-0000311.db2.gz
##########           GlobalRank: 89
##########                 Rank:                    1
##########               Setnum:                  238
##########             Matchnum:                 3885
##########                Cloud:                    1
##########        Electrostatic:           -51.432240
##########        Van der Waals:           -25.095461
##########  Ligand Polar Desolv:            11.176979
########## Ligand Apolar Desolv:            -3.285707
##########      Internal Energy:             0.000000
##########      Receptor Energy: 0.0
########## Receptor Desolvation:             0.000000
########## Receptor Hydrophobic:             0.000000
##########         Total Energy: -68.64
##########        Ligand Charge:             1.000000
##########            Arbitrary:    +999.9990
##########     heavy atom count:   22
##########           pose count:    1
##########        Ligand Energy:             0.000000
# num electro vdwattr vdwrepu polsolv apolsol rdesolv rhydroe totalscore fullpol fullapo
#   1    2.66   -0.38    0.01   -0.87   -0.04    0.00    0.00       1.38   -4.06   -0.18
#   2   -8.03   -0.50    0.02    2.93   -0.11    0.00    0.00      -5.69    9.85   -0.38
#   3    3.54   -0.90    0.08   -1.72   -0.08    0.00    0.00       0.92   -3.72   -0.17
#   4   20.19   -1.21    0.08   -7.44    0.58    0.00    0.00      12.20  -19.37    1.52
#   5  -29.23   -1.89    0.59    8.71   -1.82    0.00    0.00     -23.64   21.69   -4.53
#   6   33.80   -5.62    7.32   -9.99    0.42    0.00    0.00      25.94  -20.93    0.89
#   7  -16.34   -0.15    0.06    7.63    0.29    0.00    0.00      -8.52   16.04    0.60
#   8  -31.99   -0.34    0.19    7.71    0.30    0.00    0.00     -24.14   15.46    0.60
#   9   27.82   -2.25    2.25   -5.91    0.39    0.00    0.00      22.31  -17.22    1.15
#  10  -13.23   -0.74    0.05    2.83   -1.05    0.00    0.00     -12.13   11.81   -4.38
#  11   10.33   -0.66    0.04   -2.66    0.31    0.00    0.00       7.36  -11.36    1.32
#  12    7.08   -0.81    0.07   -2.56    0.22    0.00    0.00       4.00   -9.80    0.86
#  13    0.50   -1.65    0.85   -0.75   -0.01    0.00    0.00      -1.06   -2.17   -0.04
#  14   -1.82   -0.96    0.12    0.98    0.00    0.00    0.00      -1.68    2.48    0.01
#  15    3.32   -0.87    0.05   -1.20    0.13    0.00    0.00       1.42   -3.41    0.36
#  16   -1.55   -1.30    0.13    0.67   -0.11    0.00    0.00      -2.15    1.84   -0.31
#  17    1.23   -1.20    0.11   -0.57   -0.14    0.00    0.00      -0.56   -1.63   -0.40
#  18   -0.08   -1.21    0.08   -0.02   -0.14    0.00    0.00      -1.38   -0.04   -0.30
#  19    0.33   -3.54    1.24   -0.17   -0.46    0.00    0.00      -2.61   -0.35   -0.95
#  20    0.51   -1.60    0.24   -0.30   -0.16    0.00    0.00      -1.31   -0.56   -0.30
#  21    0.11   -6.65    4.30   -0.21   -0.58    0.00    0.00      -3.04   -0.35   -0.95
#  22    0.70   -2.11    0.82   -0.22   -0.23    0.00    0.00      -1.04   -0.43   -0.45
#  23    0.67   -1.73    0.33   -0.30   -0.15    0.00    0.00      -1.18   -0.58   -0.30
#  24    0.49   -4.59    1.12   -0.17   -0.56    0.00    0.00      -3.71   -0.30   -0.97
#  25   -1.78   -0.11    0.00    0.15   -0.03    0.00    0.00      -1.77    1.43   -0.25
#  26   -1.42   -0.08    0.00    0.23   -0.02    0.00    0.00      -1.29    3.10   -0.28
#  27   -0.52   -0.15    0.01    0.18   -0.03    0.00    0.00      -0.52    1.33   -0.26
#  28   -2.09   -0.36    0.06    0.66   -0.11    0.00    0.00      -1.85    1.69   -0.28
#  29   -2.61   -0.33    0.06    0.46   -0.10    0.00    0.00      -2.52    1.28   -0.28
#  30   -1.49   -0.32    0.04    1.16   -0.10    0.00    0.00      -0.72    3.13   -0.28
#  31  -12.83   -0.03    0.00    4.43    0.18    0.00    0.00      -8.25   14.01    0.58
#  32  -25.04   -0.13    0.05    3.66    0.17    0.00    0.00     -21.29   12.41    0.59
#  33   -8.03   -0.01    0.00    0.85    0.09    0.00    0.00      -7.10    5.88    0.60
#  34   -2.11   -0.28    0.04    0.75   -0.06    0.00    0.00      -1.67    2.57   -0.22
#  35   -0.99   -0.60    0.31    1.15   -0.09    0.00    0.00      -0.23    3.08   -0.25
#  36   -0.75   -0.21    0.02    0.51   -0.04    0.00    0.00      -0.47    2.60   -0.20
#  37   -2.78   -0.57    0.21    0.59   -0.13    0.00    0.00      -2.69    1.23   -0.28

@<TRIPOS>MOLECULE
          T527707        45
   37    38     0     0     0



@<TRIPOS>ATOM
      1 C1          1.9842    -6.7709    93.8353 C.3        1          -0.1806
      2 C2          2.8763    -6.2894    94.9812 C.3        1           0.4179
      3 C3          2.1290    -6.4188    96.3100 C.3        1          -0.1664
      4 N1          3.2627    -4.8840    94.7579 N.pl3      1          -0.7235
      5 C4          4.2237    -4.6389    93.7870 C.cat      1           0.7668
      6 N2          4.0993    -3.6706    92.9248 N.pl3      1          -0.7152
      7 H1          3.3181    -3.0962    92.9500 H          1           0.4504
      8 H2          4.7880    -3.5238    92.2577 H          1           0.4486
      9 N3          5.3292    -5.4878    93.7862 N.pl3      1          -0.6955
     10 C5          5.0685    -6.8312    94.0502 C.2        1           0.5963
     11 N4          5.6869    -7.7886    93.4200 N.2        1          -0.6198
     12 N5          4.1133    -7.0912    95.0229 N.pl3      1          -0.4977
     13 O1          4.3177    -8.0830    96.0126 O.3        1          -0.1025
     14 C6          5.4632    -7.8550    96.8361 C.3        1           0.1710
     15 O2          6.6396    -8.2758    96.1427 O.3        1          -0.2770
     16 C7          7.3837    -9.2526    96.7261 C.ar       1           0.1570
     17 C8          7.5966   -10.4523    96.0637 C.ar       1          -0.1789
     18 C9          8.3541   -11.4443    96.6585 C.ar       1           0.0108
     19 Cl1         8.6209   -12.9462    95.8299 Cl         1          -0.0273
     20 C10         8.9003   -11.2403    97.9146 C.ar       1          -0.0564
     21 Cl2         9.8515   -12.4871    98.6592 Cl         1          -0.0274
     22 C11         8.6893   -10.0442    98.5766 C.ar       1          -0.0545
     23 C12         7.9361    -9.0482    97.9830 C.ar       1          -0.0501
     24 Cl3         7.6767    -7.5450    98.8116 Cl         1          -0.0280
     25 H3          1.0721    -6.1746    93.8098 H          1           0.0968
     26 H4          2.5162    -6.6616    92.8902 H          1           0.0979
     27 H5          1.7288    -7.8193    93.9894 H          1           0.0658
     28 H6          2.7692    -6.0745    97.1221 H          1           0.0970
     29 H7          1.2241    -5.8120    96.2785 H          1           0.0903
     30 H8          1.8610    -7.4623    96.4760 H          1           0.0952
     31 H9          2.8627    -4.1621    95.2675 H          1           0.4489
     32 H10         6.2265    -5.1629    93.6126 H          1           0.4507
     33 H11         6.3503    -7.5758    92.7450 H          1           0.3672
     34 H12         5.5385    -6.7925    97.0676 H          1           0.1284
     35 H13         5.3643    -8.4223    97.7614 H          1           0.1296
     36 H14         7.1708   -10.6116    95.0841 H          1           0.1529
     37 H15         9.1164    -9.8868    99.5559 H          1           0.1612
@<TRIPOS>BOND
     1    1    2 1
     2    1   25 1
     3    1   26 1
     4    1   27 1
     5    2   12 1
     6    2    3 1
     7    2    4 1
     8    3   28 1
     9    3   29 1
    10    3   30 1
    11    4    5 1
    12    4   31 1
    13    5    6 2
    14    5    9 1
    15    6    7 1
    16    6    8 1
    17    9   10 1
    18    9   32 1
    19   10   11 2
    20   10   12 1
    21   11   33 1
    22   12   13 1
    23   13   14 1
    24   14   15 1
    25   14   34 1
    26   14   35 1
    27   15   16 1
    28   16   23 ar
    29   16   17 ar
    30   17   18 ar
    31   17   36 1
    32   18   19 1
    33   18   20 ar
    34   20   21 1
    35   20   22 ar
    36   22   23 ar
    37   22   37 1
    38   23   24 1
##########                 Name:              T527138
##########          Protonation:                   41
##########               SMILES:   c(cc1)C(c2ccccc2)[NH+]3CCN(CC3)[C@H](c4cc5ccccc5o4)C(=O)NCc6cccc(c6)C(F)(F)F
##########            Long Name:   ium-1-yl)-2-(benzofuran-2-yl)-N-[[3-(trifluoromethyl)phenyl]methyl]acetamide
##########          FlexRecCode: 1
##########               Number:                  103
##########   Ligand Source File: /raidb/db2/rgc/tcams/tcams-0000274.db2.gz
##########           GlobalRank: 90
##########                 Rank:                    1
##########               Setnum:                  120
##########             Matchnum:                 4252
##########                Cloud:                    1
##########        Electrostatic:           -38.521313
##########        Van der Waals:           -26.875549
##########  Ligand Polar Desolv:             1.564127
########## Ligand Apolar Desolv:            -4.747093
##########      Internal Energy:             0.000000
##########      Receptor Energy: 0.0
########## Receptor Desolvation:             0.000000
########## Receptor Hydrophobic:             0.000000
##########         Total Energy: -68.58
##########        Ligand Charge:             1.000000
##########            Arbitrary:    +999.9990
##########     heavy atom count:   43
##########           pose count:    1
##########        Ligand Energy:             0.000000
# num electro vdwattr vdwrepu polsolv apolsol rdesolv rhydroe totalscore fullpol fullapo
#   1    0.49   -1.07    0.56   -0.22   -0.12    0.00    0.00      -0.36   -0.78   -0.44
#   2   -1.43   -0.93    0.32    0.79   -0.02    0.00    0.00      -1.27    2.73   -0.07
#   3    0.48   -1.75    1.62   -0.31   -0.18    0.00    0.00      -0.15   -0.82   -0.48
#   4    0.30   -0.25    0.01   -0.22   -0.11    0.00    0.00      -0.27   -1.00   -0.47
#   5    2.01   -1.58    0.92   -0.47   -0.11    0.00    0.00       0.77   -1.60   -0.37
#   6    0.88   -1.14    0.15   -0.18   -0.15    0.00    0.00      -0.43   -0.53   -0.44
#   7    3.21   -1.40    0.41   -0.43   -0.14    0.00    0.00       1.66   -1.13   -0.37
#   8   -4.18   -1.02    0.19    1.03   -0.21    0.00    0.00      -4.19    2.20   -0.44
#   9   14.92   -0.97    0.04   -3.99    0.88    0.00    0.00      10.88  -10.41    2.29
#  10   -6.53   -0.95    0.13    2.13   -0.16    0.00    0.00      -5.38    7.60   -0.58
#  11   -1.12   -2.98    5.10   -2.05    0.10    0.00    0.00      -0.94   -6.44    0.33
#  12   -2.86   -0.49    0.02    0.79   -0.06    0.00    0.00      -2.59    3.08   -0.23
#  13    9.38   -0.64    0.04   -2.52    0.63    0.00    0.00       6.90  -11.58    2.91
#  14   -0.88   -0.92    0.40    0.17   -0.11    0.00    0.00      -1.33    0.63   -0.40
#  15    0.00   -0.48    0.06    0.10   -0.08    0.00    0.00      -0.40    0.45   -0.37
#  16    8.07   -0.50    0.05   -1.89    0.01    0.00    0.00       5.74  -10.31    0.03
#  17  -13.04   -0.02    0.00    2.80    0.07    0.00    0.00     -10.20   13.68    0.32
#  18   -0.01   -0.23    0.01    0.08   -0.05    0.00    0.00      -0.22    0.54   -0.37
#  19   -0.24   -0.34    0.01    0.06   -0.07    0.00    0.00      -0.57    0.33   -0.38
#  20   -1.59   -0.20    0.01    0.52   -0.02    0.00    0.00      -1.28    4.31   -0.17
#  21    0.58   -0.36    0.01   -0.34   -0.04    0.00    0.00      -0.15   -2.28   -0.25
#  22    0.25   -0.22    0.00   -0.20   -0.03    0.00    0.00      -0.20   -2.31   -0.38
#  23    0.17   -0.33    0.01   -0.30   -0.06    0.00    0.00      -0.51   -2.32   -0.47
#  24    0.14   -0.85    0.14   -0.48   -0.11    0.00    0.00      -1.16   -2.06   -0.47
#  25    0.21   -1.74    0.87   -0.65   -0.14    0.00    0.00      -1.45   -2.26   -0.47
#  26    0.26   -1.03    0.18   -0.47   -0.12    0.00    0.00      -1.18   -1.79   -0.45
#  27    2.03   -0.46    0.02   -0.39   -0.04    0.00    0.00       1.16   -2.30   -0.26
#  28    1.19   -0.32    0.01   -0.30   -0.05    0.00    0.00       0.53   -2.35   -0.38
#  29    1.27   -0.58    0.06   -0.46   -0.09    0.00    0.00       0.19   -2.35   -0.47
#  30    2.05   -0.83    0.05   -0.67   -0.15    0.00    0.00       0.44   -2.10   -0.47
#  31    3.17   -1.71    0.51   -0.82   -0.17    0.00    0.00       0.99   -2.29   -0.47
#  32    2.52   -1.60    0.47   -0.53   -0.13    0.00    0.00       0.73   -1.80   -0.45
#  33   -0.18   -0.95    0.07    0.20   -0.06    0.00    0.00      -0.92    0.62   -0.20
#  34    1.21   -1.24    0.25   -0.82   -0.16    0.00    0.00      -0.77   -2.65   -0.51
#  35    1.18   -1.27    0.13   -0.59   -0.16    0.00    0.00      -0.72   -1.67   -0.44
#  36    0.50   -1.29    0.13   -0.35   -0.18    0.00    0.00      -1.19   -0.89   -0.47
#  37    1.33   -1.60    0.31   -0.70   -0.23    0.00    0.00      -0.89   -1.43   -0.47
#  38    1.25   -2.13    0.57   -0.53   -0.25    0.00    0.00      -1.10   -0.98   -0.47
#  39    1.84   -1.95    0.27   -0.66   -0.26    0.00    0.00      -0.76   -1.20   -0.48
#  40   -0.80   -1.41    0.14    0.08   -0.16    0.00    0.00      -2.14    0.19   -0.35
#  41    2.75   -1.01    0.07   -0.91    0.11    0.00    0.00       1.02   -2.22    0.28
#  42    1.81   -1.57    0.31   -0.29   -0.18    0.00    0.00       0.07   -0.73   -0.45
#  43    2.83   -1.34    0.22   -0.49   -0.19    0.00    0.00       1.03   -1.25   -0.47
#  44    1.21   -2.22    2.92   -0.23   -0.14    0.00    0.00       1.53   -0.71   -0.44
#  45   -1.52   -0.24    0.02    0.51   -0.08    0.00    0.00      -1.30    1.82   -0.28
#  46   -2.71   -0.47    0.12    0.37   -0.13    0.00    0.00      -2.83    0.79   -0.28
#  47   -1.84   -0.35    0.05    0.44   -0.11    0.00    0.00      -1.81    1.09   -0.28
#  48  -10.34   -0.02    0.00    1.49    0.12    0.00    0.00      -8.75    6.77    0.56
#  49   -3.14   -0.18    0.01    0.66   -0.05    0.00    0.00      -2.69    3.98   -0.28
#  50   -3.27   -1.38    7.03    0.84   -0.07    0.00    0.00       3.15    3.16   -0.28
#  51   -3.30   -0.34    0.12    0.39   -0.05    0.00    0.00      -3.19    1.66   -0.22
#  52   -3.66   -0.19    0.03    0.84   -0.04    0.00    0.00      -3.03    4.35   -0.22
#  53   -1.98   -0.07    0.00    0.25   -0.02    0.00    0.00      -1.81    3.96   -0.28
#  54   -1.32   -0.06    0.00    0.22   -0.01    0.00    0.00      -1.17    4.12   -0.22
#  55   -0.92   -0.06    0.00    0.24   -0.02    0.00    0.00      -0.75    3.75   -0.28
#  56   -1.65   -0.09    0.00    0.15   -0.02    0.00    0.00      -1.60    1.79   -0.19
#  57   -1.53   -0.15    0.01    0.45   -0.04    0.00    0.00      -1.27    2.93   -0.28
#  58   -1.15   -0.03    0.00    0.18   -0.01    0.00    0.00      -1.00    5.56   -0.27
#  59   -0.20   -0.02    0.00    0.15   -0.01    0.00    0.00      -0.08    4.99   -0.22
#  60   -0.19   -0.05    0.00    0.10   -0.01    0.00    0.00      -0.15    2.25   -0.28
#  61   -0.16   -0.20    0.03    0.23   -0.06    0.00    0.00      -0.16    1.15   -0.28
#  62   -0.23   -0.84    0.92    0.49   -0.10    0.00    0.00       0.25    1.43   -0.28
#  63   -2.16   -0.32    0.06    0.94   -0.08    0.00    0.00      -1.56    3.29   -0.28
#  64   -0.59   -0.04    0.00    0.27   -0.01    0.00    0.00      -0.37    5.03   -0.21
#  65   -1.03   -0.17    0.05    0.30   -0.04    0.00    0.00      -0.89    2.30   -0.28
#  66   -3.58   -0.23    0.02    0.30   -0.07    0.00    0.00      -3.56    1.19   -0.28
#  67   -5.45   -0.84    0.91    0.60   -0.12    0.00    0.00      -4.89    1.46   -0.28
#  68   -5.73   -0.86    0.87    1.08   -0.09    0.00    0.00      -4.73    3.32   -0.28
#  69   -0.40   -0.31    0.11    0.71   -0.05    0.00    0.00       0.06    3.73   -0.28
#  70   -0.84   -0.21    0.01    0.37   -0.06    0.00    0.00      -0.73    1.69   -0.28
#  71   -1.18   -0.30    0.03    0.58   -0.11    0.00    0.00      -0.98    1.49   -0.28
#  72   -2.74   -0.60    0.21    0.83   -0.14    0.00    0.00      -2.44    1.65   -0.28
#  73   -2.68   -0.49    0.06    0.78   -0.15    0.00    0.00      -2.48    1.43   -0.28
#  74   -3.66   -0.53    0.30    0.73   -0.10    0.00    0.00      -3.26    2.03   -0.28
#  75   -3.29   -0.24    0.01    0.51   -0.07    0.00    0.00      -3.08    1.93   -0.28
#  76   -2.68   -0.51    0.56    0.28   -0.06    0.00    0.00      -2.41    1.12   -0.25

@<TRIPOS>MOLECULE
          T527138        41
   76    81     0     0     0



@<TRIPOS>ATOM
      1 F1         -1.9346    -7.9600    91.2802 F          1          -0.1735
      2 C1         -1.0599    -8.3389    92.3043 C.3        1           0.5077
      3 F2         -1.6832    -9.2871    93.1227 F          1          -0.1738
      4 F3          0.0981    -8.8924    91.7477 F          1          -0.1764
      5 C2         -0.6939    -7.1294    93.1255 C.ar       1          -0.1817
      6 C3          0.1694    -7.2574    94.1977 C.ar       1          -0.0498
      7 C4          0.5050    -6.1481    94.9509 C.ar       1          -0.1197
      8 C5          1.4458    -6.2876    96.1199 C.3        1           0.1640
      9 N1          2.8240    -6.0907    95.6639 N.am       1          -0.7155
     10 C6          3.5514    -7.1441    95.2425 C.2        1           0.5235
     11 O1          3.0650    -8.2550    95.2407 O.2        1          -0.5098
     12 C7          4.9691    -6.9414    94.7735 C.3        1           0.1523
     13 N2          5.0901    -7.3795    93.3766 N.3        1          -0.5134
     14 C8          6.3192    -6.8550    92.7647 C.3        1           0.0288
     15 C9          6.4374    -7.3816    91.3328 C.3        1           0.0000
     16 N3          5.2643    -6.9581    90.5568 N.4        1          -0.3850
     17 H1          5.2105    -5.9506    90.5516 H          1           0.4124
     18 C10         4.0470    -7.5100    91.1660 C.3        1           0.0011
     19 C11         3.9090    -6.9845    92.5965 C.3        1           0.0139
     20 C12         5.3868    -7.4489    89.1776 C.3        1           0.1335
     21 C13         4.1833    -7.0146    88.3812 C.ar       1          -0.1307
     22 C14         3.7285    -7.7951    87.3350 C.ar       1          -0.1215
     23 C15         2.6246    -7.3967    86.6044 C.ar       1          -0.1028
     24 C16         1.9753    -6.2181    86.9204 C.ar       1          -0.0923
     25 C17         2.4296    -5.4379    87.9673 C.ar       1          -0.1032
     26 C18         3.5309    -5.8385    88.7005 C.ar       1          -0.0857
     27 C19         6.6347    -6.8817    88.5515 C.ar       1          -0.1304
     28 C20         7.3044    -7.5963    87.5759 C.ar       1          -0.1223
     29 C21         8.4492    -7.0762    87.0014 C.ar       1          -0.1026
     30 C22         8.9241    -5.8414    87.4025 C.ar       1          -0.0927
     31 C23         8.2539    -5.1265    88.3775 C.ar       1          -0.1031
     32 C24         7.1067    -5.6448    88.9489 C.ar       1          -0.0862
     33 C25         5.9040    -7.7493    95.6362 C.2        1           0.0130
     34 C26         6.2752    -9.0131    95.3904 C.2        1          -0.1736
     35 C27         7.1829    -9.3923    96.4799 C.ar       1          -0.1367
     36 C28         7.8940   -10.5483    96.7985 C.ar       1          -0.0651
     37 C29         8.6741   -10.5763    97.9212 C.ar       1          -0.1301
     38 C30         8.7614    -9.4625    98.7439 C.ar       1          -0.0801
     39 C31         8.0656    -8.3107    98.4448 C.ar       1          -0.1094
     40 C32         7.2674    -8.2611    97.3086 C.ar       1           0.0594
     41 O2          6.4912    -7.3046    96.7610 O.3        1          -0.1733
     42 C33        -0.0220    -4.9104    94.6315 C.ar       1          -0.0652
     43 C34        -0.8846    -4.7824    93.5593 C.ar       1          -0.1169
     44 C35        -1.2171    -5.8913    92.8033 C.ar       1          -0.0580
     45 H2          0.5813    -8.2240    94.4471 H          1           0.1359
     46 H3          1.2020    -5.5391    96.8738 H          1           0.0876
     47 H4          1.3445    -7.2837    96.5510 H          1           0.0866
     48 H5          3.2130    -5.2020    95.6653 H          1           0.4056
     49 H6          5.2287    -5.8853    94.8468 H          1           0.1093
     50 H7          6.2817    -5.7657    92.7497 H          1           0.0637
     51 H8          7.1823    -7.1815    93.3446 H          1           0.1252
     52 H9          7.3411    -6.9823    90.8721 H          1           0.1388
     53 H10         6.4886    -8.4702    91.3490 H          1           0.1420
     54 H11         3.1784    -7.2059    90.5817 H          1           0.1387
     55 H12         4.1104    -8.5981    91.1831 H          1           0.1425
     56 H13         3.0136    -7.4056    93.0538 H          1           0.1544
     57 H14         3.8317    -5.8974    92.5787 H          1           0.0576
     58 H15         5.4454    -8.5373    89.1831 H          1           0.1494
     59 H16         4.2359    -8.7161    87.0880 H          1           0.1133
     60 H17         2.2697    -8.0062    85.7864 H          1           0.1348
     61 H18         1.1133    -5.9064    86.3492 H          1           0.1359
     62 H19         1.9225    -4.5169    88.2140 H          1           0.1374
     63 H20         3.8835    -5.2309    89.5208 H          1           0.1334
     64 H21         6.9335    -8.5610    87.2625 H          1           0.1133
     65 H22         8.9729    -7.6346    86.2397 H          1           0.1348
     66 H23         9.8189    -5.4354    86.9542 H          1           0.1358
     67 H24         8.6251    -4.1620    88.6911 H          1           0.1374
     68 H25         6.5810    -5.0847    89.7080 H          1           0.1335
     69 H26         5.9681    -9.6291    94.5580 H          1           0.1620
     70 H27         7.8287   -11.4181    96.1616 H          1           0.1311
     71 H28         9.2255   -11.4712    98.1692 H          1           0.1350
     72 H29         9.3807    -9.4984    99.6280 H          1           0.1405
     73 H30         8.1402    -7.4495    99.0921 H          1           0.1345
     74 H31         0.2403    -4.0436    95.2201 H          1           0.1352
     75 H32        -1.2966    -3.8157    93.3100 H          1           0.1416
     76 H33        -1.8881    -5.7905    91.9630 H          1           0.1442
@<TRIPOS>BOND
     1    1    2 1
     2    2    3 1
     3    2    4 1
     4    2    5 1
     5    5   44 ar
     6    5    6 ar
     7    6    7 ar
     8    6   45 1
     9    7    8 1
    10    7   42 ar
    11    8    9 1
    12    8   46 1
    13    8   47 1
    14    9   10 am
    15    9   48 1
    16   10   11 2
    17   10   12 1
    18   12   13 1
    19   12   33 1
    20   12   49 1
    21   13   19 1
    22   13   14 1
    23   14   15 1
    24   14   50 1
    25   14   51 1
    26   15   16 1
    27   15   52 1
    28   15   53 1
    29   16   17 1
    30   16   18 1
    31   16   20 1
    32   18   19 1
    33   18   54 1
    34   18   55 1
    35   19   56 1
    36   19   57 1
    37   20   21 1
    38   20   27 1
    39   20   58 1
    40   21   26 ar
    41   21   22 ar
    42   22   23 ar
    43   22   59 1
    44   23   24 ar
    45   23   60 1
    46   24   25 ar
    47   24   61 1
    48   25   26 ar
    49   25   62 1
    50   26   63 1
    51   27   32 ar
    52   27   28 ar
    53   28   29 ar
    54   28   64 1
    55   29   30 ar
    56   29   65 1
    57   30   31 ar
    58   30   66 1
    59   31   32 ar
    60   31   67 1
    61   32   68 1
    62   33   41 1
    63   33   34 2
    64   34   35 1
    65   34   69 1
    66   35   40 ar
    67   35   36 ar
    68   36   37 ar
    69   36   70 1
    70   37   38 ar
    71   37   71 1
    72   38   39 ar
    73   38   72 1
    74   39   40 ar
    75   39   73 1
    76   40   41 1
    77   42   43 ar
    78   42   74 1
    79   43   44 ar
    80   43   75 1
    81   44   76 1
##########                 Name:              T541421
##########          Protonation:                   96
##########               SMILES:   c(c(cc1[C@H]2C[C@@H]2C(=O)NCCCCC[NH+]3CC[C@H](C3)NC(=O)Nc4cc(ccc4Cl)Cl)Cl)Cl
##########            Long Name:   rophenyl)carbamoylamino]pyrrolidin-1-ium-1-yl]pentyl]cyclopropanecarboxamide
##########          FlexRecCode: 1
##########               Number:                  118
##########   Ligand Source File: /raidb/db2/rgc/tcams/tcams-0002193.db2.gz
##########           GlobalRank: 91
##########                 Rank:                    1
##########               Setnum:                   82
##########             Matchnum:                 2120
##########                Cloud:                    1
##########        Electrostatic:           -29.936249
##########        Van der Waals:           -38.307003
##########  Ligand Polar Desolv:             3.995523
########## Ligand Apolar Desolv:            -4.298345
##########      Internal Energy:             0.000000
##########      Receptor Energy: 0.0
########## Receptor Desolvation:             0.000000
########## Receptor Hydrophobic:             0.000000
##########         Total Energy: -68.55
##########        Ligand Charge:             1.000000
##########            Arbitrary:    +999.9990
##########     heavy atom count:   36
##########           pose count:    1
##########        Ligand Energy:             0.000000
# num electro vdwattr vdwrepu polsolv apolsol rdesolv rhydroe totalscore fullpol fullapo
#   1    0.45   -4.32    1.21   -0.24   -0.56    0.00    0.00      -3.45   -0.43   -0.99
#   2    0.07   -1.62    0.24   -0.12   -0.16    0.00    0.00      -1.59   -0.23   -0.30
#   3    0.98   -2.20    0.68   -0.55   -0.26    0.00    0.00      -1.35   -0.98   -0.46
#   4    1.03   -2.56    1.09   -0.36   -0.25    0.00    0.00      -1.06   -0.65   -0.46
#   5    1.02   -1.95    0.42   -0.39   -0.16    0.00    0.00      -1.05   -0.73   -0.29
#   6    1.09   -5.62    1.70   -0.25   -0.57    0.00    0.00      -3.65   -0.41   -0.94
#   7   -1.89   -1.50    0.23    0.71   -0.28    0.00    0.00      -2.73    1.74   -0.69
#   8    7.86   -1.20    0.08   -3.29    0.63    0.00    0.00       4.08   -8.71    1.66
#   9   -7.98   -1.07    0.12    3.05   -0.66    0.00    0.00      -6.53    9.78   -2.10
#  10    4.62   -0.98    0.13   -1.66    0.09    0.00    0.00       2.19   -5.86    0.32
#  11   12.23   -0.81    0.05   -4.19    0.60    0.00    0.00       7.88  -14.82    2.14
#  12   -2.73   -0.44    0.03    0.70   -0.08    0.00    0.00      -2.52    3.02   -0.33
#  13    0.71   -0.70    0.22   -0.83   -0.06    0.00    0.00      -0.65   -4.17   -0.28
#  14    0.08   -0.38    0.06    0.06   -0.07    0.00    0.00      -0.26    0.34   -0.45
#  15    5.14   -0.34    0.02   -2.08    0.08    0.00    0.00       2.81  -12.24    0.45
#  16   -6.34    0.00    0.00    0.90    0.03    0.00    0.00      -5.42   17.07    0.56
#  17    0.10   -0.28    0.03    0.04   -0.05    0.00    0.00      -0.16    0.27   -0.32
#  18    2.11   -0.38    0.04   -0.80   -0.04    0.00    0.00       0.93   -4.28   -0.21
#  19    1.88   -0.27    0.01   -0.46   -0.04    0.00    0.00       1.12   -2.88   -0.22
#  20    2.86   -0.50    0.04   -0.61   -0.06    0.00    0.00       1.74   -2.37   -0.22
#  21   -2.56   -0.63    0.05    0.46   -0.14    0.00    0.00      -2.81    1.42   -0.42
#  22   17.35   -2.33    1.59   -2.94    0.77    0.00    0.00      14.45   -8.84    2.32
#  23   -4.56   -1.16    0.29    1.10   -0.16    0.00    0.00      -4.49    4.29   -0.64
#  24    3.33   -0.34    0.01   -0.28    0.06    0.00    0.00       2.78   -1.77    0.38
#  25    1.39   -1.40    0.64   -0.52   -0.12    0.00    0.00      -0.01   -1.63   -0.37
#  26    0.33   -0.88    0.30   -0.34   -0.11    0.00    0.00      -0.70   -1.26   -0.41
#  27    0.55   -0.47    0.04   -0.21   -0.08    0.00    0.00      -0.17   -0.93   -0.37
#  28    0.51   -1.24    0.49   -0.05   -0.10    0.00    0.00      -0.38   -0.19   -0.40
#  29    0.48   -1.21    0.73   -0.15   -0.09    0.00    0.00      -0.25   -0.69   -0.42
#  30    0.27   -1.26    0.56   -0.07   -0.08    0.00    0.00      -0.58   -0.25   -0.30
#  31    0.61   -2.26    0.60   -0.08   -0.31    0.00    0.00      -1.45   -0.26   -0.95
#  32    0.57   -1.43    0.42   -0.08   -0.09    0.00    0.00      -0.61   -0.27   -0.30
#  33    1.00   -3.27    0.93   -0.09   -0.39    0.00    0.00      -1.83   -0.21   -0.95
#  34    2.34   -1.82    0.77   -0.19   -0.15    0.00    0.00       0.96   -0.56   -0.46
#  35    2.42   -1.76    0.59   -0.21   -0.14    0.00    0.00       0.90   -0.67   -0.46
#  36    0.41   -0.71    0.15    0.14   -0.11    0.00    0.00      -0.13    0.54   -0.45
#  37    0.74   -1.47    0.22   -0.37   -0.16    0.00    0.00      -1.03   -0.91   -0.39
#  38   -0.79   -0.59    0.24    0.75   -0.16    0.00    0.00      -0.55    1.34   -0.28
#  39   -2.82   -0.87    0.91    0.99   -0.15    0.00    0.00      -1.95    1.81   -0.28
#  40   -5.76   -0.02    0.00    1.71    0.13    0.00    0.00      -3.94    6.95    0.52
#  41   -8.35   -0.01    0.00    1.46    0.08    0.00    0.00      -6.82   10.99    0.58
#  42   -3.30   -0.13    0.01    0.23   -0.03    0.00    0.00      -3.22    1.97   -0.26
#  43    0.49   -0.73    1.03    0.55   -0.06    0.00    0.00       1.27    2.46   -0.28
#  44   -0.44   -0.15    0.03    0.11   -0.03    0.00    0.00      -0.49    0.89   -0.28
#  45   -0.65   -0.13    0.01    0.61   -0.03    0.00    0.00      -0.18    5.22   -0.22
#  46   -0.31   -0.10    0.02    0.44   -0.02    0.00    0.00       0.02    4.93   -0.28
#  47   -1.20   -0.17    0.06    0.68   -0.03    0.00    0.00      -0.67    5.57   -0.28
#  48   -0.90   -0.03    0.00    0.17   -0.01    0.00    0.00      -0.78    5.00   -0.28
#  49   -1.72   -0.29    0.09    0.72   -0.05    0.00    0.00      -1.25    3.15   -0.23
#  50   -0.86   -0.07    0.00    0.24   -0.02    0.00    0.00      -0.70    3.27   -0.28
#  51   -0.82   -0.04    0.00    0.06   -0.01    0.00    0.00      -0.80    1.60   -0.28
#  52   -1.63   -0.10    0.01    0.17   -0.03    0.00    0.00      -1.59    1.57   -0.28
#  53   -2.15   -0.36    0.16    0.45   -0.07    0.00    0.00      -1.97    1.81   -0.28
#  54   -1.21   -0.09    0.00    0.15   -0.02    0.00    0.00      -1.18    1.84   -0.28
#  55   -2.03   -0.25    0.02    0.12   -0.09    0.00    0.00      -2.22    0.40   -0.28
#  56   -0.89   -0.15    0.01    0.05   -0.04    0.00    0.00      -1.02    0.37   -0.28
#  57  -19.22   -0.14    0.04    2.81    0.23    0.00    0.00     -16.28    7.00    0.57
#  58   -3.89   -1.31    2.34    0.96   -0.12    0.00    0.00      -2.02    2.19   -0.28
#  59   -0.20   -0.51    0.30    0.52   -0.06    0.00    0.00       0.04    1.82   -0.22
#  60   -0.22   -0.12    0.01    0.11   -0.03    0.00    0.00      -0.25    0.98   -0.28
#  61   -1.03   -0.05    0.00    0.03   -0.01    0.00    0.00      -1.06    0.56   -0.27
#  62   -0.23   -0.12    0.01    0.22   -0.02    0.00    0.00      -0.14    1.87   -0.21
#  63   -4.70   -0.34    0.06    0.34   -0.08    0.00    0.00      -4.72    1.14   -0.28
#  64   -5.81   -0.54    0.32    0.40   -0.08    0.00    0.00      -5.71    1.42   -0.28
#  65   -4.78   -0.39    0.17    1.56   -0.07    0.00    0.00      -3.52    6.08   -0.28
#  66   -2.41   -0.49    0.36    1.44   -0.06    0.00    0.00      -1.17    6.14   -0.26
#  67   -0.58   -0.27    0.03    0.21   -0.05    0.00    0.00      -0.66    0.84   -0.19

@<TRIPOS>MOLECULE
          T541421        96
   67    70     0     0     0



@<TRIPOS>ATOM
      1 Cl1         8.3217   -13.3483    96.9361 Cl         1          -0.0464
      2 C1          8.3490   -11.7141    97.5211 C.ar       1          -0.0096
      3 C2          9.1070   -11.3904    98.6331 C.ar       1          -0.1111
      4 C3          9.1312   -10.0900    99.1019 C.ar       1          -0.0709
      5 C4          8.3983    -9.1089    98.4608 C.ar       1          -0.0666
      6 Cl2         8.4299    -7.4763    99.0501 Cl         1          -0.0527
      7 C5          7.6367    -9.4306    97.3440 C.ar       1           0.1812
      8 N1          6.8935    -8.4390    96.6926 N.am       1          -0.6714
      9 C6          6.6627    -8.5309    95.3679 C.2        1           0.7125
     10 O1          7.1001    -9.4748    94.7387 O.2        1          -0.5535
     11 N2          5.9472    -7.5763    94.7408 N.am       1          -0.7332
     12 C7          5.6963    -7.6761    93.3008 C.3        1           0.1514
     13 C8          4.9794    -8.9811    92.9765 C.3        1          -0.1589
     14 C9          5.9080    -9.7153    92.0028 C.3        1          -0.0133
     15 N3          6.7098    -8.6301    91.3853 N.4        1          -0.3869
     16 H1          6.1678    -8.1366    90.6918 H          1           0.4305
     17 C10         7.9427    -9.1672    90.7942 C.3        1          -0.0093
     18 C11         8.7464    -8.0265    90.1666 C.3        1          -0.1484
     19 C12         7.9099    -7.3526    89.0771 C.3        1          -0.1150
     20 C13         8.7136    -6.2120    88.4495 C.3        1          -0.1328
     21 C14         7.8772    -5.5380    87.3599 C.3        1           0.1176
     22 N4          6.6477    -5.0023    87.9494 N.am       1          -0.7314
     23 C15         5.5402    -5.7682    88.0104 C.2        1           0.5461
     24 O2          5.5617    -6.9008    87.5772 O.2        1          -0.5318
     25 C16         4.2754    -5.2172    88.6168 C.3        1          -0.1825
     26 C17         2.9457    -5.6729    88.0127 C.3        1          -0.1410
     27 C18         3.3790    -6.1894    89.3861 C.3        1          -0.0793
     28 C19         2.6489    -5.6569    90.5921 C.ar       1          -0.0426
     29 C20         1.2674    -5.6887    90.6329 C.ar       1          -0.1009
     30 C21         0.5968    -5.2000    91.7393 C.ar       1          -0.0281
     31 Cl3        -1.1379    -5.2401    91.7914 Cl         1          -0.0429
     32 C22         1.3101    -4.6792    92.8061 C.ar       1          -0.0330
     33 Cl4         0.4699    -4.0660    94.1959 Cl         1          -0.0420
     34 C23         2.6921    -4.6482    92.7636 C.ar       1          -0.0935
     35 C24         3.3609    -5.1422    91.6591 C.ar       1          -0.0908
     36 C25         7.0163    -7.7487    92.5346 C.3        1          -0.0191
     37 C26         7.6182   -10.7363    96.8727 C.ar       1          -0.1135
     38 H2          9.6805   -12.1552    99.1356 H          1           0.1494
     39 H3          9.7231    -9.8406    99.9702 H          1           0.1526
     40 H4          6.5446    -7.6860    97.1946 H          1           0.4146
     41 H5          5.5982    -6.8232    95.2428 H          1           0.4072
     42 H6          5.1060    -6.8256    92.9600 H          1           0.1316
     43 H7          4.8372    -9.5707    93.8822 H          1           0.1030
     44 H8          4.0185    -8.7783    92.5036 H          1           0.1208
     45 H9          6.5540   -10.4093    92.5406 H          1           0.1366
     46 H10         5.3282   -10.2412    91.2444 H          1           0.1374
     47 H11         8.5386    -9.6473    91.5705 H          1           0.1328
     48 H12         7.6890    -9.8982    90.0265 H          1           0.1311
     49 H13         9.0000    -7.2955    90.9344 H          1           0.0887
     50 H14         9.6611    -8.4250    89.7280 H          1           0.0895
     51 H15         7.6564    -8.0836    88.3094 H          1           0.0792
     52 H16         6.9951    -6.9540    89.5157 H          1           0.0784
     53 H17         8.9673    -5.4809    89.2172 H          1           0.0747
     54 H18         9.6284    -6.6105    88.0109 H          1           0.0753
     55 H19         8.4498    -4.7254    86.9129 H          1           0.0699
     56 H20         7.6236    -6.2690    86.5923 H          1           0.0697
     57 H21         6.6305    -4.0964    88.2958 H          1           0.4032
     58 H22         4.3375    -4.1923    88.9831 H          1           0.1284
     59 H23         2.1323    -4.9478    87.9815 H          1           0.1128
     60 H24         2.9856    -6.3712    87.1768 H          1           0.1094
     61 H25         3.7041    -7.2277    89.4537 H          1           0.1346
     62 H26         0.7117    -6.0947    89.8004 H          1           0.1435
     63 H27         3.2489    -4.2418    93.5950 H          1           0.1468
     64 H28         4.4403    -5.1223    91.6283 H          1           0.1418
     65 H29         7.3130    -6.7584    92.1889 H          1           0.1464
     66 H30         7.7960    -8.1884    93.1567 H          1           0.1380
     67 H31         7.0304   -10.9885    96.0024 H          1           0.1656
@<TRIPOS>BOND
     1    1    2 1
     2    2   37 ar
     3    2    3 ar
     4    3    4 ar
     5    3   38 1
     6    4    5 ar
     7    4   39 1
     8    5    6 1
     9    5    7 ar
    10    7    8 1
    11    7   37 ar
    12    8    9 am
    13    8   40 1
    14    9   10 2
    15    9   11 am
    16   11   12 1
    17   11   41 1
    18   12   36 1
    19   12   13 1
    20   12   42 1
    21   13   14 1
    22   13   43 1
    23   13   44 1
    24   14   15 1
    25   14   45 1
    26   14   46 1
    27   15   16 1
    28   15   17 1
    29   15   36 1
    30   17   18 1
    31   17   47 1
    32   17   48 1
    33   18   19 1
    34   18   49 1
    35   18   50 1
    36   19   20 1
    37   19   51 1
    38   19   52 1
    39   20   21 1
    40   20   53 1
    41   20   54 1
    42   21   22 1
    43   21   55 1
    44   21   56 1
    45   22   23 am
    46   22   57 1
    47   23   24 2
    48   23   25 1
    49   25   27 1
    50   25   26 1
    51   25   58 1
    52   26   27 1
    53   26   59 1
    54   26   60 1
    55   27   28 1
    56   27   61 1
    57   28   35 ar
    58   28   29 ar
    59   29   30 ar
    60   29   62 1
    61   30   31 1
    62   30   32 ar
    63   32   33 1
    64   32   34 ar
    65   34   35 ar
    66   34   63 1
    67   35   64 1
    68   36   65 1
    69   36   66 1
    70   37   67 1
##########                 Name:              T525901
##########          Protonation:                   21
##########               SMILES:   COc1ccc2c(n1)c(c(cn2)F)CC[NH+]3C[C@@H]([C@H](C3)O)C[NH2+]Cc4ccc5c(c4)OCCO5
##########            Long Name:   1,5-naphthyridin-4-yl)ethyl]-4-hydroxy-pyrrolidin-1-ium-3-yl]methyl]ammonium
##########          FlexRecCode: 1
##########               Number:                  127
##########   Ligand Source File: /raidb/db2/rgc/tcams/tcams-0000120.db2.gz
##########           GlobalRank: 92
##########                 Rank:                    1
##########               Setnum:                  290
##########             Matchnum:                 3116
##########                Cloud:                    1
##########        Electrostatic:           -55.788280
##########        Van der Waals:           -21.952730
##########  Ligand Polar Desolv:             9.967098
########## Ligand Apolar Desolv:            -0.752365
##########      Internal Energy:             0.000000
##########      Receptor Energy: 0.0
########## Receptor Desolvation:             0.000000
########## Receptor Hydrophobic:             0.000000
##########         Total Energy: -68.53
##########        Ligand Charge:             2.000000
##########            Arbitrary:    +999.9990
##########     heavy atom count:   34
##########           pose count:    1
##########        Ligand Energy:             0.000000
# num electro vdwattr vdwrepu polsolv apolsol rdesolv rhydroe totalscore fullpol fullapo
#   1   -0.05   -0.13    0.00    0.04    0.00    0.00    0.00      -0.14    0.47    0.03
#   2    0.33   -0.16    0.00   -0.52    0.07    0.00    0.00      -0.29   -6.77    0.90
#   3   -0.48   -0.25    0.01    0.67   -0.07    0.00    0.00      -0.12    6.63   -0.66
#   4    0.15   -0.27    0.01   -0.33   -0.05    0.00    0.00      -0.49   -3.03   -0.46
#   5   -0.01   -0.35    0.02   -0.09   -0.06    0.00    0.00      -0.49   -0.75   -0.48
#   6   -0.06   -0.54    0.06   -0.06   -0.12    0.00    0.00      -0.72   -0.36   -0.73
#   7    0.65   -0.79    0.08   -1.85    0.48    0.00    0.00      -1.44   -7.68    1.99
#   8   -0.92   -1.79    0.86    0.42   -0.32    0.00    0.00      -1.75    1.28   -0.97
#   9   -1.27   -1.38    0.50    0.64   -0.11    0.00    0.00      -1.62    1.98   -0.34
#  10    2.52   -0.96    0.17   -1.09   -0.19    0.00    0.00       0.44   -2.61   -0.45
#  11    0.27   -0.62    0.05   -0.14   -0.07    0.00    0.00      -0.52   -0.69   -0.36
#  12    0.39   -0.28    0.01   -0.70   -0.04    0.00    0.00      -0.63   -3.86   -0.22
#  13    0.01   -0.33    0.01    0.22   -0.06    0.00    0.00      -0.14    1.19   -0.33
#  14    5.84   -0.35    0.01   -2.82    0.07    0.00    0.00       2.76  -17.26    0.41
#  15   -4.28    0.00    0.00    0.98    0.02    0.00    0.00      -3.28   24.95    0.56
#  16    0.95   -0.52    0.05   -0.65   -0.09    0.00    0.00      -0.25   -2.71   -0.38
#  17   -1.95   -0.68    0.13    0.86   -0.03    0.00    0.00      -1.68    3.59   -0.13
#  18   21.94   -3.33    3.02   -9.06    0.60    0.00    0.00      13.17  -25.84    1.70
#  19    4.07   -1.00    0.35   -1.69   -0.05    0.00    0.00       1.67   -6.15   -0.19
#  20    0.19   -0.56    0.09   -0.06   -0.08    0.00    0.00      -0.41   -0.28   -0.34
#  21   18.13   -1.54    1.52   -6.60    0.19    0.00    0.00      11.70  -25.75    0.73
#  22  -22.13   -0.10    0.03    6.16    0.15    0.00    0.00     -15.89   22.79    0.57
#  23  -16.77   -0.03    0.00    4.73    0.11    0.00    0.00     -11.96   22.69    0.51
#  24   -1.11   -0.42    0.03    0.83   -0.09    0.00    0.00      -0.77    3.90   -0.42
#  25    2.55   -0.80    0.07   -0.83   -0.10    0.00    0.00       0.90   -3.23   -0.37
#  26    1.52   -0.94    0.05   -0.74   -0.15    0.00    0.00      -0.26   -2.15   -0.45
#  27    1.57   -1.19    0.09   -1.59   -0.18    0.00    0.00      -1.30   -3.96   -0.46
#  28   -0.84   -1.31    0.14   -0.28   -0.11    0.00    0.00      -2.39   -0.77   -0.30
#  29    2.67   -1.46    0.31   -2.03    0.28    0.00    0.00      -0.23   -4.97    0.68
#  30   -0.13   -0.92    0.11    0.08   -0.06    0.00    0.00      -0.91    0.19   -0.14
#  31   -0.05   -1.39    0.32    0.16   -0.06    0.00    0.00      -1.02    0.38   -0.14
#  32    0.52   -1.54    0.41   -2.06    0.23    0.00    0.00      -2.44   -5.99    0.68
#  33   -0.23   -1.54    0.49   -0.25   -0.10    0.00    0.00      -1.63   -0.78   -0.30
#  34    0.44   -1.39    0.62   -0.62   -0.12    0.00    0.00      -1.06   -2.37   -0.46
#  35   -0.07   -0.51    0.07    0.05   -0.10    0.00    0.00      -0.57    0.22   -0.47
#  36   -0.29   -0.49    0.05    0.46   -0.12    0.00    0.00      -0.39    2.84   -0.73
#  37    0.93   -0.31    0.01   -1.35    0.32    0.00    0.00      -0.41  -10.92    2.54
#  38   -0.11   -0.04    0.00    0.10   -0.01    0.00    0.00      -0.06    2.67   -0.28
#  39   -0.07   -0.02    0.00    0.06   -0.01    0.00    0.00      -0.04    2.30   -0.28
#  40   -0.09   -0.07    0.00    0.25   -0.02    0.00    0.00       0.07    3.58   -0.28
#  41   -0.11   -0.04    0.00    0.10   -0.01    0.00    0.00      -0.07    2.61   -0.28
#  42   -0.11   -0.05    0.00    0.08   -0.01    0.00    0.00      -0.09    1.99   -0.28
#  43   -2.73   -0.95    2.10    1.23   -0.10    0.00    0.00      -0.45    3.46   -0.28
#  44   -1.52   -0.12    0.01    0.75   -0.03    0.00    0.00      -0.92    4.77   -0.22
#  45   -0.23   -0.05    0.00    0.28   -0.01    0.00    0.00      -0.02    5.70   -0.26
#  46   -1.14   -0.08    0.00    0.57   -0.02    0.00    0.00      -0.67    6.68   -0.28
#  47   -2.49   -0.18    0.02    0.80   -0.04    0.00    0.00      -1.90    4.82   -0.27
#  48   -4.60   -0.33    0.10    1.27   -0.07    0.00    0.00      -3.62    5.02   -0.27
#  49   -2.57   -0.10    0.00    0.73   -0.03    0.00    0.00      -1.96    7.33   -0.26
#  50   -1.66   -0.07    0.00    0.57   -0.02    0.00    0.00      -1.17    8.91   -0.27
#  51  -24.11   -0.27    0.12    7.67    0.54    0.00    0.00     -16.05   17.61    1.23
#  52   -6.37   -1.06    1.80    2.18   -0.10    0.00    0.00      -3.54    6.08   -0.28
#  53   -2.18   -0.07    0.00    0.75   -0.02    0.00    0.00      -1.51   11.91   -0.28
#  54   -3.02   -0.17    0.02    1.71   -0.05    0.00    0.00      -1.50   10.45   -0.28
#  55   -3.41   -0.12    0.00    1.07   -0.03    0.00    0.00      -2.48    9.72   -0.28
#  56   -1.76   -0.09    0.00    0.84   -0.02    0.00    0.00      -1.04    9.51   -0.28
#  57   -3.43   -0.22    0.02    1.57   -0.06    0.00    0.00      -2.12    7.72   -0.28
#  58   -2.33   -0.30    0.05    0.47   -0.09    0.00    0.00      -2.20    1.53   -0.28
#  59   -1.32   -0.22    0.02    0.42   -0.06    0.00    0.00      -1.17    1.95   -0.28
#  60   -0.68   -0.34    0.07    0.43   -0.10    0.00    0.00      -0.61    1.26   -0.28
#  61   -0.60   -0.38    0.09    0.27   -0.10    0.00    0.00      -0.71    0.77   -0.28
#  62    0.40   -1.01    0.83    1.33   -0.13    0.00    0.00       1.41    2.81   -0.28
#  63   -0.25   -0.29    0.11    1.22   -0.05    0.00    0.00       0.74    7.08   -0.28
#  64   -1.81   -0.08    0.00    0.87   -0.02    0.00    0.00      -1.04   11.50   -0.26
#  65   -2.51   -0.39    0.21    1.50   -0.06    0.00    0.00      -1.25    6.30   -0.26

@<TRIPOS>MOLECULE
          T525901        21
   65    69     0     0     0



@<TRIPOS>ATOM
      1 C1         11.1629   -11.0916    84.8146 C.3        1           0.0399
      2 O1         12.5626   -10.8835    84.6151 O.3        1          -0.2895
      3 C2         13.1140    -9.7965    85.2086 C.ar       1           0.3803
      4 C3         14.4813    -9.5436    85.0396 C.ar       1          -0.1594
      5 C4         15.0501    -8.4551    85.6294 C.ar       1           0.0079
      6 C5         14.2296    -7.6065    86.4020 C.ar       1           0.0414
      7 N1         14.7310    -6.5251    87.0031 N.ar       1          -0.3995
      8 C6         13.9745    -5.7321    87.7222 C.ar       1           0.0966
      9 C7         12.6114    -5.9801    87.8935 C.ar       1           0.1004
     10 F1         11.8601    -5.1421    88.6409 F          1          -0.1173
     11 C8         12.0373    -7.0720    87.3035 C.ar       1          -0.1010
     12 C9         10.5679    -7.3601    87.4736 C.3        1          -0.0888
     13 C10        10.1799    -7.1816    88.9428 C.3        1          -0.0012
     14 N2          8.7477    -7.4623    89.1086 N.4        1          -0.3895
     15 H1          8.4853    -8.2543    88.5408 H          1           0.4326
     16 C11         7.9600    -6.2851    88.7169 C.3        1          -0.0424
     17 C12         6.7136    -6.3878    89.6125 C.3        1           0.0755
     18 O2          6.0151    -5.1428    89.6769 O.3        1          -0.5413
     19 C13         7.3904    -6.7227    90.9579 C.3        1          -0.1380
     20 C14         6.3927    -7.3537    91.9314 C.3        1          -0.0080
     21 N3          5.5767    -6.2992    92.5481 N.4        1          -0.5095
     22 H2          6.1758    -5.6594    93.0480 H          1           0.4345
     23 H3          5.0751    -5.7986    91.8298 H          1           0.4290
     24 C15         4.6187    -6.9049    93.4826 C.3        1           0.0537
     25 C16         5.3677    -7.6525    94.5555 C.ar       1          -0.1785
     26 C17         5.7337    -7.0044    95.7206 C.ar       1          -0.0837
     27 C18         6.4203    -7.6863    96.7077 C.ar       1          -0.1121
     28 C19         6.7431    -9.0229    96.5309 C.ar       1           0.0975
     29 O3          7.4159    -9.6886    97.5088 O.3        1          -0.2954
     30 C20         8.0542   -10.9126    97.1310 C.3        1           0.0165
     31 C21         7.0331   -11.7376    96.3387 C.3        1           0.0177
     32 O4          6.6886   -10.9854    95.1709 O.3        1          -0.3031
     33 C22         6.3760    -9.6743    95.3588 C.ar       1           0.0562
     34 C23         5.6825    -8.9862    94.3751 C.ar       1          -0.0893
     35 C24         8.4546    -7.7424    90.5211 C.3        1           0.0043
     36 C25        12.8552    -7.9198    86.5322 C.ar       1           0.1558
     37 N4         12.3519    -8.9995    85.9261 N.ar       1          -0.5573
     38 H4         10.8508   -11.9931    84.2873 H          1           0.1060
     39 H5         10.9608   -11.2054    85.8797 H          1           0.0611
     40 H6         10.6096   -10.2352    84.4293 H          1           0.0520
     41 H7         15.0844   -10.2115    84.4424 H          1           0.1651
     42 H8         16.1029    -8.2470    85.5085 H          1           0.1697
     43 H9         14.4161    -4.8667    88.1936 H          1           0.1860
     44 H10         9.9890    -6.6710    86.8586 H          1           0.1112
     45 H11        10.3604    -8.3846    87.1649 H          1           0.1024
     46 H12        10.7589    -7.8707    89.5576 H          1           0.1385
     47 H13        10.3875    -6.1569    89.2514 H          1           0.1377
     48 H14         8.5095    -5.3670    88.9245 H          1           0.1517
     49 H15         7.6837    -6.3389    87.6639 H          1           0.1499
     50 H16         6.0553    -7.1928    89.2859 H          1           0.1042
     51 H17         6.5418    -4.4143    90.0331 H          1           0.4155
     52 H18         7.8520    -5.8370    91.3942 H          1           0.1484
     53 H19         5.7456    -8.0447    91.3914 H          1           0.1410
     54 H20         6.9344    -7.8943    92.7073 H          1           0.1533
     55 H21         4.0132    -6.1225    93.9401 H          1           0.1403
     56 H22         3.9716    -7.5960    92.9425 H          1           0.1449
     57 H23         5.4829    -5.9632    95.8597 H          1           0.1415
     58 H24         6.7058    -7.1776    97.6166 H          1           0.1508
     59 H25         8.9224   -10.7000    96.5070 H          1           0.1377
     60 H26         8.3611   -11.4603    98.0221 H          1           0.0878
     61 H27         7.4734   -12.6914    96.0480 H          1           0.0886
     62 H28         6.1436   -11.9073    96.9454 H          1           0.1366
     63 H29         5.3918    -9.4913    93.4659 H          1           0.1408
     64 H30         8.0664    -8.7553    90.6283 H          1           0.1495
     65 H31         9.3565    -7.6207    91.1209 H          1           0.1525
@<TRIPOS>BOND
     1    1    2 1
     2    1   38 1
     3    1   39 1
     4    1   40 1
     5    2    3 1
     6    3   37 ar
     7    3    4 ar
     8    4    5 ar
     9    4   41 1
    10    5    6 ar
    11    5   42 1
    12    6   36 ar
    13    6    7 ar
    14    7    8 ar
    15    8    9 ar
    16    8   43 1
    17    9   10 1
    18    9   11 ar
    19   11   12 1
    20   11   36 ar
    21   12   13 1
    22   12   44 1
    23   12   45 1
    24   13   14 1
    25   13   46 1
    26   13   47 1
    27   14   15 1
    28   14   35 1
    29   14   16 1
    30   16   17 1
    31   16   48 1
    32   16   49 1
    33   17   18 1
    34   17   19 1
    35   17   50 1
    36   18   51 1
    37   19   20 1
    38   19   35 1
    39   19   52 1
    40   20   21 1
    41   20   53 1
    42   20   54 1
    43   21   22 1
    44   21   23 1
    45   21   24 1
    46   24   25 1
    47   24   55 1
    48   24   56 1
    49   25   34 ar
    50   25   26 ar
    51   26   27 ar
    52   26   57 1
    53   27   28 ar
    54   27   58 1
    55   28   33 ar
    56   28   29 1
    57   29   30 1
    58   30   31 1
    59   30   59 1
    60   30   60 1
    61   31   32 1
    62   31   61 1
    63   31   62 1
    64   32   33 1
    65   33   34 ar
    66   34   63 1
    67   35   64 1
    68   35   65 1
    69   36   37 ar
##########                 Name:              T536198
##########          Protonation:                   77
##########               SMILES:   CC(C)(C)c1ccc(cc1)CNC(=O)/C=C\c2ccc(cc2)C[NH2+]C3CC[NH2+]CC3
##########            Long Name:   l)methylamino]-3-oxo-prop-1-enyl]phenyl]methyl-piperidin-1-ium-4-yl-ammonium
##########          FlexRecCode: 1
##########               Number:                   24
##########   Ligand Source File: /raidb/db2/rgc/tcams/tcams-0001607.db2.gz
##########           GlobalRank: 93
##########                 Rank:                    1
##########               Setnum:                   48
##########             Matchnum:                 3307
##########                Cloud:                    1
##########        Electrostatic:           -52.792648
##########        Van der Waals:           -29.951620
##########  Ligand Polar Desolv:            17.286123
########## Ligand Apolar Desolv:            -3.011874
##########      Internal Energy:             0.000000
##########      Receptor Energy: 0.0
########## Receptor Desolvation:             0.000000
########## Receptor Hydrophobic:             0.000000
##########         Total Energy: -68.47
##########        Ligand Charge:             2.000000
##########            Arbitrary:    +999.9990
##########     heavy atom count:   30
##########           pose count:    1
##########        Ligand Energy:             0.000000
# num electro vdwattr vdwrepu polsolv apolsol rdesolv rhydroe totalscore fullpol fullapo
#   1    1.48   -0.15    0.00   -0.12   -0.02    0.00    0.00       1.19   -1.26   -0.17
#   2    0.68   -0.35    0.02   -0.06   -0.01    0.00    0.00       0.28   -0.30   -0.07
#   3    3.70   -0.90    0.25   -0.36   -0.05    0.00    0.00       2.64   -1.26   -0.17
#   4    3.53   -0.60    0.10   -0.33   -0.03    0.00    0.00       2.66   -1.43   -0.13
#   5    0.80   -0.48    0.03   -0.14   -0.06    0.00    0.00       0.15   -0.80   -0.34
#   6    1.87   -0.46    0.02   -0.29   -0.08    0.00    0.00       1.06   -1.57   -0.43
#   7    0.84   -0.67    0.07   -0.26   -0.10    0.00    0.00      -0.11   -1.23   -0.46
#   8    0.99   -0.81    0.14   -0.29   -0.08    0.00    0.00      -0.05   -1.33   -0.37
#   9   -0.82   -0.73    0.11    0.72   -0.12    0.00    0.00      -0.84    2.55   -0.44
#  10    5.49   -1.24    0.24   -3.12    0.73    0.00    0.00       2.11  -10.01    2.34
#  11   -3.18   -1.45    0.19    2.60   -0.22    0.00    0.00      -2.05    7.12   -0.59
#  12   -0.98   -3.29    1.68   -2.91    0.12    0.00    0.00      -5.39   -7.05    0.29
#  13    1.95   -1.67    0.37   -1.80   -0.20    0.00    0.00      -1.35   -4.10   -0.45
#  14    0.87   -1.62    0.18   -0.11   -0.22    0.00    0.00      -0.89   -0.21   -0.44
#  15    0.03   -1.36    0.16   -1.04   -0.13    0.00    0.00      -2.34   -2.43   -0.30
#  16    1.04   -1.88    0.45   -1.03   -0.14    0.00    0.00      -1.55   -2.34   -0.31
#  17    3.00   -1.64    0.29   -1.44   -0.20    0.00    0.00       0.01   -3.28   -0.46
#  18    4.56   -1.07    0.08   -1.05   -0.13    0.00    0.00       2.39   -3.06   -0.37
#  19   -1.43   -0.76    0.06    1.26   -0.15    0.00    0.00      -1.02    3.35   -0.40
#  20   10.82   -0.53    0.02   -5.96    0.15    0.00    0.00       4.49  -24.28    0.63
#  21   -8.08   -0.01    0.00    1.88    0.05    0.00    0.00      -6.16   22.74    0.56
#  22   -7.48   -0.01    0.00    2.43    0.06    0.00    0.00      -5.00   23.44    0.56
#  23   -0.26   -0.63    0.07    0.60   -0.06    0.00    0.00      -0.28    2.14   -0.23
#  24    3.99   -1.04    0.17   -3.52   -0.08    0.00    0.00      -0.47   -9.31   -0.21
#  25    0.04   -0.97    0.16    0.12   -0.19    0.00    0.00      -0.84    0.29   -0.47
#  26   13.63   -1.21    0.31   -8.69    0.31    0.00    0.00       4.34  -25.29    0.89
#  27  -16.09   -0.05    0.00    8.99    0.21    0.00    0.00      -6.94   24.06    0.56
#  28  -11.40   -0.02    0.00    5.37    0.13    0.00    0.00      -5.92   23.50    0.57
#  29    0.02   -0.48    0.03    0.08   -0.12    0.00    0.00      -0.48    0.30   -0.47
#  30    2.03   -0.37    0.02   -1.68   -0.05    0.00    0.00      -0.05   -8.55   -0.24
#  31    1.49   -1.11    0.08   -1.09   -0.17    0.00    0.00      -0.79   -3.01   -0.46
#  32    1.22   -1.51    0.20   -1.46   -0.18    0.00    0.00      -1.73   -3.56   -0.45
#  33    0.84   -1.13    0.76   -0.22   -0.08    0.00    0.00       0.16   -1.26   -0.46
#  34    1.28   -0.67    0.15   -0.24   -0.07    0.00    0.00       0.47   -1.42   -0.40
#  35   -0.40   -0.03    0.00    0.02   -0.01    0.00    0.00      -0.42    0.52   -0.25
#  36   -0.60   -0.06    0.00    0.03   -0.02    0.00    0.00      -0.65    0.46   -0.28
#  37   -0.53   -0.03    0.00    0.02   -0.01    0.00    0.00      -0.55    0.50   -0.28
#  38   -2.32   -0.78    0.75    0.18   -0.10    0.00    0.00      -2.28    0.51   -0.28
#  39   -1.06   -0.15    0.01    0.07   -0.05    0.00    0.00      -1.18    0.43   -0.28
#  40   -1.66   -0.27    0.06    0.12   -0.06    0.00    0.00      -1.81    0.52   -0.25
#  41   -2.23   -0.46    0.29    0.16   -0.06    0.00    0.00      -2.30    0.69   -0.26
#  42   -1.35   -0.23    0.03    0.13   -0.05    0.00    0.00      -1.47    0.66   -0.26
#  43   -0.92   -0.07    0.00    0.03   -0.02    0.00    0.00      -0.98    0.49   -0.28
#  44   -2.38   -0.08    0.00    0.12   -0.02    0.00    0.00      -2.35    1.63   -0.20
#  45   -0.41   -0.23    0.07    0.37   -0.05    0.00    0.00      -0.25    2.31   -0.28
#  46    0.11   -0.60    0.44    0.18   -0.07    0.00    0.00       0.07    0.70   -0.28
#  47   -0.55   -0.17    0.01    0.21   -0.05    0.00    0.00      -0.54    1.19   -0.28
#  48   -4.09   -0.04    0.00    1.35    0.13    0.00    0.00      -2.66    6.08    0.57
#  49   -1.67   -0.38    0.14    0.75   -0.09    0.00    0.00      -1.26    2.43   -0.28
#  50   -2.79   -0.39    0.04    1.47   -0.14    0.00    0.00      -1.81    3.02   -0.28
#  51   -3.15   -0.77    0.53    0.30   -0.12    0.00    0.00      -3.20    0.66   -0.25
#  52   -5.67   -0.63    0.57    2.41   -0.12    0.00    0.00      -3.44    5.45   -0.28
#  53   -4.12   -0.33    0.04    2.72   -0.07    0.00    0.00      -1.76    8.91   -0.22
#  54   -6.02   -0.43    0.19    2.44   -0.09    0.00    0.00      -3.91    7.66   -0.28
#  55   -3.74   -0.37    0.13    2.46   -0.07    0.00    0.00      -1.59    9.26   -0.28
#  56   -3.04   -0.53    0.17    2.63   -0.10    0.00    0.00      -0.88    7.29   -0.28
#  57   -2.72   -0.39    0.09    1.90   -0.07    0.00    0.00      -1.19    5.98   -0.22
#  58   -4.15   -0.23    0.02    1.69   -0.07    0.00    0.00      -2.75    6.43   -0.28
#  59   -4.36   -0.54    0.22    2.57   -0.10    0.00    0.00      -2.21    6.89   -0.28
#  60   -1.94   -0.13    0.00    0.94   -0.04    0.00    0.00      -1.17    6.25   -0.28
#  61   -0.77   -0.17    0.02    1.19   -0.05    0.00    0.00       0.22    6.84   -0.28
#  62   -1.27   -0.15    0.02    0.72   -0.04    0.00    0.00      -0.72    5.57   -0.28
#  63   -0.92   -0.07    0.00    0.45   -0.02    0.00    0.00      -0.56    6.88   -0.28
#  64   -1.68   -0.22    0.02    1.65   -0.06    0.00    0.00      -0.30    7.38   -0.28
#  65   -0.85   -0.67    0.39    0.85   -0.11    0.00    0.00      -0.39    2.15   -0.28
#  66   -0.83   -0.27    0.21    0.24   -0.04    0.00    0.00      -0.70    1.67   -0.28
#  67   -1.18   -0.09    0.01    0.10   -0.02    0.00    0.00      -1.18    1.20   -0.24

@<TRIPOS>MOLECULE
          T536198        77
   67    69     0     0     0



@<TRIPOS>ATOM
      1 C1          7.2484    -8.0309    88.4093 C.3        1          -0.1405
      2 C2          7.1682    -7.2426    89.7181 C.3        1          -0.0347
      3 C3          8.3719    -6.3040    89.8227 C.3        1          -0.1409
      4 C4          5.8775    -6.4213    89.7406 C.3        1          -0.1468
      5 C5          7.1748    -8.1996    90.8822 C.ar       1          -0.0500
      6 C6          6.1060    -8.2296    91.7583 C.ar       1          -0.1223
      7 C7          6.1121    -9.1076    92.8262 C.ar       1          -0.0974
      8 C8          7.1868    -9.9557    93.0175 C.ar       1          -0.1285
      9 C9          7.1936   -10.9123    94.1820 C.3        1           0.1668
     10 N1          7.8118   -10.2653    95.3418 N.am       1          -0.7124
     11 C10         7.1071   -10.1061    96.4796 C.2        1           0.5373
     12 O1          5.9574   -10.4998    96.5436 O.2        1          -0.5419
     13 C11         7.7250    -9.4595    97.6391 C.2        1          -0.1792
     14 C12         7.6331    -8.1236    97.7944 C.2        1          -0.0580
     15 C13         6.7096    -7.3464    96.9517 C.ar       1          -0.0017
     16 C14         7.1995    -6.3333    96.1215 C.ar       1          -0.0454
     17 C15         6.3281    -5.6097    95.3352 C.ar       1          -0.0968
     18 C16         4.9718    -5.8839    95.3660 C.ar       1          -0.1779
     19 C17         4.0265    -5.0885    94.5029 C.3        1           0.0465
     20 N2          3.0802    -5.9995    93.8452 N.4        1          -0.5062
     21 H1          3.5884    -6.6555    93.2712 H          1           0.4366
     22 H2          2.5547    -6.5013    94.5451 H          1           0.4291
     23 C18         2.1587    -5.2242    93.0038 C.3        1           0.0127
     24 C19         1.3741    -4.2391    93.8744 C.3        1          -0.1741
     25 C20         0.5388    -5.0226    94.8890 C.3        1          -0.0016
     26 N3         -0.3975    -5.9063    94.1834 N.4        1          -0.5113
     27 H3         -0.9740    -6.3886    94.8568 H          1           0.4334
     28 H4         -0.9839    -5.3550    93.5751 H          1           0.4477
     29 C21         0.3424    -6.8901    93.3833 C.3        1          -0.0013
     30 C22         1.1709    -6.1709    92.3168 C.3        1          -0.1726
     31 C23         4.4794    -6.8849    96.1850 C.ar       1          -0.0946
     32 C24         5.3386    -7.6212    96.9730 C.ar       1          -0.1039
     33 C25         8.2549    -9.9267    92.1407 C.ar       1          -0.0960
     34 C26         8.2471    -9.0514    91.0706 C.ar       1          -0.1151
     35 H5          6.3908    -8.6996    88.3349 H          1           0.0576
     36 H6          7.2436    -7.3388    87.5674 H          1           0.0566
     37 H7          8.1678    -8.6161    88.3934 H          1           0.0635
     38 H8          8.3147    -5.7423    90.7552 H          1           0.0635
     39 H9          9.2914    -6.8891    89.8067 H          1           0.0568
     40 H10         8.3671    -5.6117    88.9807 H          1           0.0577
     41 H11         5.8203    -5.8596    90.6730 H          1           0.0588
     42 H12         5.8726    -5.7291    88.8985 H          1           0.0589
     43 H13         5.0201    -7.0899    89.6660 H          1           0.0631
     44 H14         5.2665    -7.5670    91.6090 H          1           0.1309
     45 H15         5.2775    -9.1306    93.5111 H          1           0.1205
     46 H16         6.1694   -11.1946    94.4263 H          1           0.0772
     47 H17         7.7625   -11.8034    93.9168 H          1           0.0750
     48 H18         8.7281    -9.9516    95.2910 H          1           0.4070
     49 H19         8.2545   -10.0529    98.3698 H          1           0.1445
     50 H20         8.2371    -7.6235    98.5371 H          1           0.1501
     51 H21         8.2576    -6.1180    96.0966 H          1           0.1270
     52 H22         6.7049    -4.8268    94.6937 H          1           0.1270
     53 H23         3.4775    -4.3799    95.1229 H          1           0.1365
     54 H24         4.5941    -4.5462    93.7468 H          1           0.1402
     55 H25         2.7248    -4.6768    92.2501 H          1           0.1567
     56 H26         2.0688    -3.5851    94.4016 H          1           0.1138
     57 H27         0.7156    -3.6405    93.2448 H          1           0.1375
     58 H28         1.1988    -5.6210    95.5168 H          1           0.1546
     59 H29        -0.0209    -4.3258    95.5129 H          1           0.1444
     60 H30         1.0053    -7.4611    94.0333 H          1           0.1546
     61 H31        -0.3618    -7.5672    92.8997 H          1           0.1443
     62 H32         0.5097    -5.5985    91.6663 H          1           0.1375
     63 H33         1.7198    -6.9040    91.7258 H          1           0.1131
     64 H34         3.4197    -7.0928    96.2039 H          1           0.1271
     65 H35         4.9534    -8.4051    97.6082 H          1           0.1365
     66 H36         9.0945   -10.5896    92.2899 H          1           0.1225
     67 H37         9.0802    -9.0310    90.3836 H          1           0.1261
@<TRIPOS>BOND
     1    1    2 1
     2    1   35 1
     3    1   36 1
     4    1   37 1
     5    2    3 1
     6    2    4 1
     7    2    5 1
     8    3   38 1
     9    3   39 1
    10    3   40 1
    11    4   41 1
    12    4   42 1
    13    4   43 1
    14    5   34 ar
    15    5    6 ar
    16    6    7 ar
    17    6   44 1
    18    7    8 ar
    19    7   45 1
    20    8    9 1
    21    8   33 ar
    22    9   10 1
    23    9   46 1
    24    9   47 1
    25   10   11 am
    26   10   48 1
    27   11   12 2
    28   11   13 1
    29   13   14 2
    30   13   49 1
    31   14   15 1
    32   14   50 1
    33   15   32 ar
    34   15   16 ar
    35   16   17 ar
    36   16   51 1
    37   17   18 ar
    38   17   52 1
    39   18   19 1
    40   18   31 ar
    41   19   20 1
    42   19   53 1
    43   19   54 1
    44   20   21 1
    45   20   22 1
    46   20   23 1
    47   23   30 1
    48   23   24 1
    49   23   55 1
    50   24   25 1
    51   24   56 1
    52   24   57 1
    53   25   26 1
    54   25   58 1
    55   25   59 1
    56   26   27 1
    57   26   28 1
    58   26   29 1
    59   29   30 1
    60   29   60 1
    61   29   61 1
    62   30   62 1
    63   30   63 1
    64   31   32 ar
    65   31   64 1
    66   32   65 1
    67   33   34 ar
    68   33   66 1
    69   34   67 1
##########                 Name:              T529532
##########          Protonation:                   15
##########               SMILES:   NH+]/CCCCCCN/C(=[NH+]\C(=[NH2+])NCc2ccc(c(c2)Cl)Cl)/N3CCCCC3)/N4CCCCC4)Cl)Cl
##########            Long Name:   o]-(1-piperidyl)methylene]ammoniohexylamino]-(1-piperidyl)methylene]ammonium
##########          FlexRecCode: 1
##########               Number:                  288
##########   Ligand Source File: /raidb/db2/rgc/tcams/tcams-0000572.db2.gz
##########           GlobalRank: 95
##########                 Rank:                    1
##########               Setnum:                  170
##########             Matchnum:                 3118
##########                Cloud:                    1
##########        Electrostatic:           -50.476318
##########        Van der Waals:           -25.075109
##########  Ligand Polar Desolv:            11.808543
########## Ligand Apolar Desolv:            -4.715619
##########      Internal Energy:             0.000000
##########      Receptor Energy: 0.0
########## Receptor Desolvation:             0.000000
########## Receptor Hydrophobic:             0.000000
##########         Total Energy: -68.46
##########        Ligand Charge:             4.000000
##########            Arbitrary:    +999.9990
##########     heavy atom count:   48
##########           pose count:    1
##########        Ligand Energy:             0.000000
# num electro vdwattr vdwrepu polsolv apolsol rdesolv rhydroe totalscore fullpol fullapo
#   1    0.01   -2.70    1.10   -1.07   -0.29    0.00    0.00      -2.95   -3.54   -0.95
#   2    0.00   -0.85    0.17   -0.57   -0.07    0.00    0.00      -1.32   -2.48   -0.30
#   3    0.05   -0.62    0.15   -0.69   -0.07    0.00    0.00      -1.17   -4.63   -0.46
#   4    0.03   -0.31    0.03   -0.18   -0.05    0.00    0.00      -0.48   -1.70   -0.45
#   5    0.07   -0.24    0.01   -0.21   -0.03    0.00    0.00      -0.40   -2.29   -0.37
#   6   -0.05   -0.08    0.00    0.36   -0.02    0.00    0.00       0.21    8.03   -0.39
#   7    0.33   -0.07    0.00   -1.27    0.06    0.00    0.00      -0.94  -39.11    1.74
#   8   -0.36   -0.06    0.00    1.33   -0.13    0.00    0.00       0.79   48.08   -4.73
#   9    0.28   -0.04    0.00   -1.06    0.02    0.00    0.00      -0.80  -45.93    0.68
#  10   -0.13    0.00    0.00    0.37    0.00    0.00    0.00       0.24   27.47    0.19
#  11   -0.17    0.00    0.00    0.31    0.01    0.00    0.00       0.15   28.41    0.49
#  12    0.36   -0.06    0.00   -1.22    0.03    0.00    0.00      -0.88  -37.78    1.06
#  13   -0.49   -0.05    0.00    1.44   -0.11    0.00    0.00       0.79   48.91   -3.87
#  14    0.32   -0.03    0.00   -0.89    0.04    0.00    0.00      -0.56  -34.57    1.66
#  15   -0.20    0.00    0.00    0.36    0.01    0.00    0.00       0.16   29.91    0.57
#  16   -0.04   -0.04    0.00    0.12   -0.01    0.00    0.00       0.04    4.04   -0.33
#  17    0.10   -0.03    0.00   -0.26   -0.01    0.00    0.00      -0.20   -8.32   -0.22
#  18    0.07   -0.06    0.00   -0.36   -0.01    0.00    0.00      -0.37   -7.09   -0.22
#  19    0.16   -0.05    0.00   -0.32   -0.01    0.00    0.00      -0.22   -7.52   -0.22
#  20    0.45   -0.08    0.00   -0.51   -0.01    0.00    0.00      -0.16   -8.38   -0.22
#  21   -0.56   -0.09    0.00    0.23   -0.02    0.00    0.00      -0.45    4.09   -0.42
#  22    6.56   -0.24    0.00   -3.77    0.13    0.00    0.00       2.69  -37.01    1.28
#  23  -15.10   -0.65    0.06    9.82   -0.74    0.00    0.00      -6.63   49.22   -3.73
#  24   20.80   -2.20    1.12  -11.80    0.33    0.00    0.00       8.24  -38.34    1.06
#  25  -23.83   -0.11    0.02   11.13    0.22    0.00    0.00     -12.59   30.21    0.60
#  26  -20.48   -1.38    0.45   13.15   -1.25    0.00    0.00      -9.51   49.38   -4.70
#  27   25.58   -2.57    1.39  -16.90    0.25    0.00    0.00       7.75  -49.38    0.72
#  28  -22.36   -0.12    0.02   14.69    0.21    0.00    0.00      -7.55   32.82    0.48
#  29  -10.60   -0.02    0.00    7.12    0.09    0.00    0.00      -3.40   31.52    0.41
#  30   10.26   -0.42    0.02   -5.98    0.26    0.00    0.00       4.14  -39.67    1.74
#  31   -1.35   -0.24    0.01    1.18   -0.06    0.00    0.00      -0.46    8.16   -0.39
#  32    1.77   -0.60    0.06   -0.49   -0.07    0.00    0.00       0.67   -2.59   -0.37
#  33    0.74   -0.78    0.11   -0.58   -0.10    0.00    0.00      -0.60   -2.64   -0.45
#  34    0.41   -0.98    0.17   -0.83   -0.08    0.00    0.00      -1.31   -3.02   -0.30
#  35    0.11   -2.14    0.35   -1.18   -0.31    0.00    0.00      -3.17   -3.64   -0.95
#  36   -0.01   -1.11    0.15   -0.88   -0.10    0.00    0.00      -1.96   -2.63   -0.30
#  37    0.03   -3.91    1.12   -1.73   -0.44    0.00    0.00      -4.92   -3.75   -0.95
#  38    1.45   -0.90    0.07   -1.51   -0.14    0.00    0.00      -1.04   -4.90   -0.46
#  39    1.01   -0.63    0.04   -0.30   -0.09    0.00    0.00       0.03   -1.48   -0.45
#  40   12.93   -0.66    0.04   -8.17    0.28    0.00    0.00       4.42  -36.21    1.25
#  41   -1.52   -0.40    0.04    1.59   -0.08    0.00    0.00      -0.37    7.79   -0.39
#  42    2.96   -1.16    0.48   -2.20   -0.09    0.00    0.00       0.00   -6.36   -0.26
#  43    4.12   -1.24    0.33   -2.40   -0.10    0.00    0.00       0.71   -5.73   -0.25
#  44    5.03   -1.61    0.59   -2.93   -0.12    0.00    0.00       0.96   -6.61   -0.26
#  45   -3.34   -1.18    0.55    2.65   -0.17    0.00    0.00      -1.48    7.79   -0.49
#  46    0.54   -0.09    0.00   -1.58    0.02    0.00    0.00      -1.11  -40.17    0.42
#  47   -0.10   -0.09    0.00    0.37   -0.02    0.00    0.00       0.16    6.85   -0.39
#  48    0.15   -0.19    0.01   -0.93   -0.03    0.00    0.00      -1.00   -7.02   -0.26
#  49    0.19   -0.27    0.02   -1.10   -0.04    0.00    0.00      -1.21   -6.86   -0.25
#  50    0.16   -0.17    0.01   -0.80   -0.03    0.00    0.00      -0.83   -7.31   -0.25
#  51   -0.08   -0.09    0.00    0.32   -0.02    0.00    0.00       0.14    5.72   -0.34
#  52    0.05   -0.44    0.02   -0.38   -0.07    0.00    0.00      -0.82   -2.38   -0.45
#  53    0.04   -0.78    0.07   -0.68   -0.07    0.00    0.00      -1.42   -2.79   -0.30
#  54    0.02   -3.78    1.45   -1.32   -0.37    0.00    0.00      -4.00   -3.39   -0.95
#  55   -0.07   -0.11    0.03    0.39   -0.03    0.00    0.00       0.20    3.54   -0.28
#  56   -0.03   -0.03    0.00    0.43   -0.01    0.00    0.00       0.36   10.60   -0.28
#  57   -0.04   -0.03    0.00    0.25   -0.01    0.00    0.00       0.17    9.14   -0.28
#  58   -0.02   -0.02    0.00    0.19    0.00    0.00    0.00       0.15   10.70   -0.27
#  59   -0.29    0.00    0.00    0.51    0.01    0.00    0.00       0.24   26.64    0.57
#  60   -0.28    0.00    0.00    0.58    0.01    0.00    0.00       0.31   32.55    0.59
#  61   -0.07   -0.02    0.00    0.19    0.00    0.00    0.00       0.10    8.50   -0.18
#  62   -0.05   -0.01    0.00    0.13    0.00    0.00    0.00       0.06    7.69   -0.27
#  63   -0.07   -0.01    0.00    0.07    0.00    0.00    0.00      -0.01    4.41   -0.28
#  64   -0.08   -0.01    0.00    0.09   -0.01    0.00    0.00       0.00    4.67   -0.28
#  65   -0.04   -0.03    0.00    0.17   -0.01    0.00    0.00       0.09    4.40   -0.28
#  66   -0.04   -0.02    0.00    0.09   -0.01    0.00    0.00       0.03    4.40   -0.28
#  67   -0.10   -0.01    0.00    0.07   -0.01    0.00    0.00      -0.05    3.41   -0.28
#  68   -0.16   -0.02    0.00    0.08   -0.01    0.00    0.00      -0.10    3.07   -0.28
#  69   -0.27   -0.04    0.00    0.22   -0.01    0.00    0.00      -0.10    5.59   -0.28
#  70   -0.15   -0.02    0.00    0.21   -0.01    0.00    0.00       0.03    7.23   -0.28
#  71   -1.27   -0.04    0.00    0.31   -0.01    0.00    0.00      -1.01    8.59   -0.28
#  72   -0.64   -0.02    0.00    0.19   -0.01    0.00    0.00      -0.48    6.80   -0.22
#  73   -2.80    0.00    0.00    1.19    0.01    0.00    0.00      -1.59   30.68    0.35
#  74   -6.09    0.00    0.00    1.33    0.03    0.00    0.00      -4.74   26.76    0.58
#  75   -1.34   -0.07    0.00    0.84   -0.02    0.00    0.00      -0.59   13.49   -0.26
#  76   -0.45   -0.07    0.00    0.78   -0.02    0.00    0.00       0.24   10.22   -0.28
#  77   -1.66   -0.11    0.01    0.86   -0.03    0.00    0.00      -0.93    8.29   -0.28
#  78   -3.13   -0.19    0.01    0.82   -0.06    0.00    0.00      -2.55    3.82   -0.28
#  79   -2.27   -0.09    0.00    1.01   -0.02    0.00    0.00      -1.38   11.99   -0.28
#  80   -0.96   -0.08    0.00    0.46   -0.02    0.00    0.00      -0.59    5.71   -0.27
#  81   -0.64   -0.11    0.01    0.80   -0.03    0.00    0.00       0.04    8.11   -0.27
#  82   -2.83   -1.35    3.21    0.40   -0.09    0.00    0.00      -0.67    1.19   -0.28
#  83   -1.34   -0.31    0.07    0.86   -0.07    0.00    0.00      -0.79    3.31   -0.28
#  84   -1.92   -0.27    0.05    0.53   -0.07    0.00    0.00      -1.68    2.06   -0.28
#  85   -3.89   -1.17    2.46   -0.55   -0.12    0.00    0.00      -3.26   -1.28   -0.28
#  86   -3.72   -0.87    0.65    0.42   -0.13    0.00    0.00      -3.64    0.90   -0.28
#  87   -3.10   -0.68    0.27    1.65   -0.13    0.00    0.00      -1.98    3.69   -0.28
#  88   -3.50   -1.14    2.29    3.02   -0.10    0.00    0.00       0.58    8.40   -0.27
#  89   -2.38   -0.19    0.03    0.91   -0.05    0.00    0.00      -1.68    5.31   -0.28
#  90   -0.11   -0.02    0.00    0.19   -0.01    0.00    0.00       0.06    6.79   -0.23
#  91   -0.10   -0.02    0.00    0.23   -0.01    0.00    0.00       0.10    7.84   -0.27
#  92   -0.12   -0.07    0.00    0.08   -0.02    0.00    0.00      -0.12    1.27   -0.28
#  93   -0.07   -0.08    0.01    0.51   -0.03    0.00    0.00       0.33    4.67   -0.28
#  94   -0.13   -0.07    0.00    0.18   -0.02    0.00    0.00      -0.05    2.26   -0.28
#  95   -0.15   -0.17    0.03    0.00   -0.05    0.00    0.00      -0.34   -0.01   -0.28
#  96   -0.14   -0.07    0.00    0.23   -0.02    0.00    0.00       0.00    2.83   -0.28
#  97   -0.07   -0.04    0.00    0.28   -0.01    0.00    0.00       0.15    6.39   -0.21
#  98   -0.07   -0.02    0.00    0.22   -0.01    0.00    0.00       0.12    9.50   -0.24
#  99   -0.10   -0.04    0.00    0.26   -0.01    0.00    0.00       0.12    6.90   -0.23
# 100   -0.11   -0.09    0.00    0.61   -0.02    0.00    0.00       0.39    8.33   -0.28

@<TRIPOS>MOLECULE
          T529532        15
  100   103     0     0     0



@<TRIPOS>ATOM
      1 Cl1         6.8097   -10.3659    82.3833 Cl         1          -0.0055
      2 C1          5.1669   -10.9244    82.4407 C.ar       1          -0.0011
      3 C2          4.8835   -12.1930    82.9136 C.ar       1          -0.0956
      4 C3          3.5753   -12.6374    82.9591 C.ar       1          -0.0713
      5 C4          2.5497   -11.8145    82.5322 C.ar       1          -0.1451
      6 C5          1.1240   -12.3000    82.5829 C.3        1           0.1348
      7 N1          0.5352   -11.9518    83.8784 N.pl3      1          -0.6399
      8 C6         -0.7690   -12.2960    84.1571 C.cat      1           0.7327
      9 N2         -1.4811   -12.9329    83.2662 N.pl3      1          -0.7531
     10 H1         -1.0914   -13.1635    82.4083 H          1           0.4425
     11 H2         -2.3996   -13.1753    83.4625 H          1           0.4525
     12 N3         -1.3171   -11.9720    85.3631 N.pl3      1          -0.6234
     13 C7         -0.5350   -11.8909    86.4599 C.cat      1           0.7589
     14 N4          0.5578   -12.6508    86.5577 N.pl3      1          -0.5791
     15 H3          0.7483   -13.3162    85.8781 H          1           0.4456
     16 C8          1.4697   -12.4799    87.6915 C.3        1           0.0707
     17 C9          2.5353   -11.4409    87.3368 C.3        1          -0.1443
     18 C10         3.4876   -11.2624    88.5209 C.3        1          -0.1170
     19 C11         4.5532   -10.2233    88.1662 C.3        1          -0.1192
     20 C12         5.5056   -10.0449    89.3503 C.3        1          -0.1428
     21 C13         6.5712    -9.0059    88.9956 C.3        1           0.0748
     22 N5          5.9244    -7.7269    88.6921 N.pl3      1          -0.6296
     23 C14         6.5632    -6.5811    88.9375 C.cat      1           0.7718
     24 N6          6.0313    -5.6814    89.7912 N.pl3      1          -0.6222
     25 H4          6.4262    -4.7992    89.8741 H          1           0.4783
     26 C15         4.9387    -6.0126    90.5373 C.cat      1           0.7166
     27 N7          4.0841    -5.0895    90.8896 N.pl3      1          -0.7715
     28 H5          4.2267    -4.1686    90.6205 H          1           0.4615
     29 H6          3.3071    -5.3250    91.4201 H          1           0.4422
     30 N8          4.7364    -7.3204    90.9195 N.pl3      1          -0.6175
     31 C16         3.5628    -7.6762    91.7210 C.3        1           0.1288
     32 C17         3.9020    -7.5653    93.1851 C.ar       1          -0.1499
     33 C18         5.0946    -8.0788    93.6587 C.ar       1          -0.0676
     34 C19         5.4064    -7.9773    95.0025 C.ar       1          -0.0382
     35 Cl2         6.9045    -8.6216    95.5977 Cl         1          -0.0094
     36 C20         4.5230    -7.3609    95.8727 C.ar       1           0.0006
     37 Cl3         4.9129    -7.2321    97.5593 Cl         1          -0.0024
     38 C21         3.3299    -6.8475    95.3970 C.ar       1          -0.0956
     39 C22         3.0225    -6.9449    94.0529 C.ar       1          -0.0720
     40 N9          7.7597    -6.3182    88.3224 N.pl3      1          -0.6354
     41 C23         8.0502    -6.8597    86.9879 C.3        1           0.1174
     42 C24         8.4591    -5.7065    86.0662 C.3        1          -0.1396
     43 C25         9.6220    -4.9396    86.7001 C.3        1          -0.1313
     44 C26         9.1767    -4.3515    88.0411 C.3        1          -0.1451
     45 C27         8.7735    -5.4844    88.9826 C.3        1           0.1160
     46 N10        -0.8630   -11.0284    87.4733 N.pl3      1          -0.6728
     47 C28        -0.3651    -9.6460    87.4704 C.3        1           0.1036
     48 C29        -1.5557    -8.6928    87.6152 C.3        1          -0.1362
     49 C30        -2.3569    -9.0698    88.8635 C.3        1          -0.1333
     50 C31        -2.8943   -10.4950    88.7158 C.3        1          -0.1426
     51 C32        -1.7240   -11.4668    88.5803 C.3        1           0.0920
     52 C33         2.8312   -10.5465    82.0594 C.ar       1          -0.0690
     53 C34         4.1392   -10.0981    82.0185 C.ar       1          -0.0389
     54 Cl4         4.4926    -8.5030    81.4317 Cl         1          -0.0135
     55 H7          5.6841   -12.8366    83.2468 H          1           0.1582
     56 H8          3.3544   -13.6280    83.3279 H          1           0.1450
     57 H9          0.5509   -11.8281    81.7848 H          1           0.1213
     58 H10         1.1039   -13.3821    82.4537 H          1           0.1219
     59 H11         1.0640   -11.4789    84.5400 H          1           0.4460
     60 H12        -2.2692   -11.7998    85.4326 H          1           0.4671
     61 H13         0.9078   -12.1415    88.5620 H          1           0.1191
     62 H14         1.9510   -13.4314    87.9173 H          1           0.1228
     63 H15         3.0973   -11.7794    86.4663 H          1           0.0917
     64 H16         2.0539   -10.4893    87.1110 H          1           0.0909
     65 H17         2.9256   -10.9238    89.3914 H          1           0.0785
     66 H18         3.9689   -12.2139    88.7467 H          1           0.0789
     67 H19         5.1152   -10.5618    87.2958 H          1           0.0817
     68 H20         4.0719    -9.2717    87.9404 H          1           0.0812
     69 H21         4.9436    -9.7062    90.2206 H          1           0.0880
     70 H22         5.9868   -10.9964    89.5762 H          1           0.0862
     71 H23         7.2497    -8.8786    89.8394 H          1           0.1244
     72 H24         7.1333    -9.3443    88.1252 H          1           0.1186
     73 H25         5.0317    -7.7130    88.3127 H          1           0.4250
     74 H26         5.3709    -8.0058    90.6579 H          1           0.4519
     75 H27         2.7428    -6.9976    91.4855 H          1           0.1240
     76 H28         3.2641    -8.6995    91.4937 H          1           0.1268
     77 H29         5.7831    -8.5598    92.9795 H          1           0.1493
     78 H30         2.6404    -6.3667    96.0751 H          1           0.1586
     79 H31         2.0929    -6.5401    93.6811 H          1           0.1436
     80 H32         8.8654    -7.5802    87.0554 H          1           0.1027
     81 H33         7.1605    -7.3477    86.5900 H          1           0.0913
     82 H34         8.7698    -6.1053    85.1004 H          1           0.1045
     83 H35         7.6126    -5.0341    85.9272 H          1           0.0762
     84 H36        10.4595    -5.6184    86.8613 H          1           0.0779
     85 H37         9.9310    -4.1335    86.0347 H          1           0.0899
     86 H38         9.9980    -3.7860    88.4809 H          1           0.1043
     87 H39         8.3233    -3.6919    87.8835 H          1           0.0742
     88 H40         8.3608    -5.0654    89.9003 H          1           0.0910
     89 H41         9.6490    -6.0902    89.2165 H          1           0.1105
     90 H42         0.3211    -9.5030    88.3050 H          1           0.1017
     91 H43         0.1513    -9.4457    86.5315 H          1           0.1013
     92 H44        -1.1929    -7.6695    87.7109 H          1           0.1080
     93 H45        -2.1944    -8.7721    86.7354 H          1           0.0767
     94 H46        -1.7111    -9.0142    89.7398 H          1           0.0815
     95 H47        -3.1905    -8.3777    88.9826 H          1           0.0919
     96 H48        -3.4844   -10.7544    89.5948 H          1           0.1070
     97 H49        -3.5204   -10.5572    87.8257 H          1           0.0765
     98 H50        -2.1038   -12.4673    88.3736 H          1           0.1037
     99 H51        -1.1511   -11.4755    89.5075 H          1           0.1102
    100 H52         2.0295    -9.9041    81.7262 H          1           0.1480
@<TRIPOS>BOND
     1    1    2 1
     2    2   53 ar
     3    2    3 ar
     4    3    4 ar
     5    3   55 1
     6    4    5 ar
     7    4   56 1
     8    5    6 1
     9    5   52 ar
    10    6    7 1
    11    6   57 1
    12    6   58 1
    13    7    8 1
    14    7   59 1
    15    8    9 2
    16    8   12 1
    17    9   10 1
    18    9   11 1
    19   12   13 1
    20   12   60 1
    21   13   14 2
    22   13   46 1
    23   14   15 1
    24   14   16 1
    25   16   17 1
    26   16   61 1
    27   16   62 1
    28   17   18 1
    29   17   63 1
    30   17   64 1
    31   18   19 1
    32   18   65 1
    33   18   66 1
    34   19   20 1
    35   19   67 1
    36   19   68 1
    37   20   21 1
    38   20   69 1
    39   20   70 1
    40   21   22 1
    41   21   71 1
    42   21   72 1
    43   22   23 1
    44   22   73 1
    45   23   24 2
    46   23   40 1
    47   24   25 1
    48   24   26 1
    49   26   27 2
    50   26   30 1
    51   27   28 1
    52   27   29 1
    53   30   31 1
    54   30   74 1
    55   31   32 1
    56   31   75 1
    57   31   76 1
    58   32   39 ar
    59   32   33 ar
    60   33   34 ar
    61   33   77 1
    62   34   35 1
    63   34   36 ar
    64   36   37 1
    65   36   38 ar
    66   38   39 ar
    67   38   78 1
    68   39   79 1
    69   40   45 1
    70   40   41 1
    71   41   42 1
    72   41   80 1
    73   41   81 1
    74   42   43 1
    75   42   82 1
    76   42   83 1
    77   43   44 1
    78   43   84 1
    79   43   85 1
    80   44   45 1
    81   44   86 1
    82   44   87 1
    83   45   88 1
    84   45   89 1
    85   46   51 1
    86   46   47 1
    87   47   48 1
    88   47   90 1
    89   47   91 1
    90   48   49 1
    91   48   92 1
    92   48   93 1
    93   49   50 1
    94   49   94 1
    95   49   95 1
    96   50   51 1
    97   50   96 1
    98   50   97 1
    99   51   98 1
   100   51   99 1
   101   52   53 ar
   102   52  100 1
   103   53   54 1
##########                 Name:              T541189
##########          Protonation:                   15
##########               SMILES:   N(C(NC(=[NH2+])N1)(C)C)OCc2c(cc(c(c2)Cl)Cl)CON\3C(NC(=[NH2+])N/C3=N\[H])(C)C
##########            Long Name:   loro-phenyl]methoxy]-6-imino-4,4-dimethyl-1,3,5-triazinan-2-ylidene]ammonium
##########          FlexRecCode: 1
##########               Number:                   72
##########   Ligand Source File: /raidb/db2/rgc/tcams/tcams-0002114.db2.gz
##########           GlobalRank: 95
##########                 Rank:                    1
##########               Setnum:                  155
##########             Matchnum:                 1481
##########                Cloud:                    1
##########        Electrostatic:           -73.925385
##########        Van der Waals:           -19.543409
##########  Ligand Polar Desolv:            26.985886
########## Ligand Apolar Desolv:            -1.976268
##########      Internal Energy:             0.000000
##########      Receptor Energy: 0.0
########## Receptor Desolvation:             0.000000
########## Receptor Hydrophobic:             0.000000
##########         Total Energy: -68.46
##########        Ligand Charge:             2.000000
##########            Arbitrary:    +999.9990
##########     heavy atom count:   32
##########           pose count:    1
##########        Ligand Energy:             0.000000
# num electro vdwattr vdwrepu polsolv apolsol rdesolv rhydroe totalscore fullpol fullapo
#   1   -0.02   -2.09    4.59   -1.59   -0.05    0.00    0.00       0.84   -5.37   -0.18
#   2   -6.70   -0.59    0.03    4.07   -0.12    0.00    0.00      -3.31   12.66   -0.38
#   3    2.65   -1.09    0.17   -1.99   -0.07    0.00    0.00      -0.33   -4.70   -0.16
#   4   16.20   -0.85    0.03   -7.74    0.49    0.00    0.00       8.14  -23.93    1.52
#   5  -24.31   -1.65    0.21   11.64   -1.97    0.00    0.00     -16.08   26.75   -4.53
#   6   22.65   -4.76    4.60  -12.97    0.46    0.00    0.00       9.99  -25.06    0.89
#   7  -12.38   -0.08    0.01    7.88    0.25    0.00    0.00      -4.31   18.73    0.60
#   8  -16.85   -0.18    0.05   10.41    0.34    0.00    0.00      -6.24   18.41    0.60
#   9   30.96   -2.95    2.59  -10.72    0.55    0.00    0.00      20.42  -22.26    1.15
#  10  -23.18   -2.19    1.31    7.59   -1.95    0.00    0.00     -18.42   17.06   -4.39
#  11   26.22   -3.78    2.22   -9.76    0.75    0.00    0.00      15.64  -18.50    1.42
#  12   11.76   -0.91    0.06   -4.11    0.27    0.00    0.00       7.06  -13.46    0.87
#  13    1.53   -0.83    0.09   -0.88    0.10    0.00    0.00       0.02   -3.21    0.37
#  14   -1.37   -0.63    0.10    0.48   -0.03    0.00    0.00      -1.45    1.92   -0.11
#  15    0.78   -0.60    0.07   -0.15   -0.08    0.00    0.00       0.02   -0.76   -0.41
#  16    0.54   -0.77    0.11   -0.30   -0.09    0.00    0.00      -0.50   -1.40   -0.42
#  17    0.13   -0.60    0.05   -0.19   -0.06    0.00    0.00      -0.67   -0.95   -0.30
#  18    0.25   -2.61    0.68   -0.37   -0.30    0.00    0.00      -2.34   -1.18   -0.95
#  19    0.11   -0.29    0.01   -0.12   -0.04    0.00    0.00      -0.32   -0.96   -0.30
#  20    0.09   -0.57    0.04   -0.13   -0.10    0.00    0.00      -0.67   -1.17   -0.95
#  21    0.43   -0.19    0.00   -0.11   -0.03    0.00    0.00       0.11   -1.40   -0.42
#  22    0.68   -0.31    0.01   -0.09   -0.05    0.00    0.00       0.24   -0.76   -0.41
#  23   -0.97   -0.23    0.01    0.27   -0.02    0.00    0.00      -0.93    1.91   -0.11
#  24    1.59   -0.47    0.03   -0.65    0.07    0.00    0.00       0.57   -3.21    0.37
#  25   10.37   -0.67    0.05   -3.02    0.20    0.00    0.00       6.92  -13.46    0.87
#  26  -18.03   -1.65    0.45    5.48   -1.41    0.00    0.00     -15.15   17.07   -4.38
#  27   17.52   -1.93    0.73   -5.68    0.43    0.00    0.00      11.07  -18.51    1.41
#  28   27.27   -3.25    1.70   -9.90    0.51    0.00    0.00      16.33  -22.26    1.15
#  29  -26.45   -2.09    0.47   12.11   -2.05    0.00    0.00     -18.01   26.74   -4.52
#  30   27.75   -4.18    3.51  -12.97    0.46    0.00    0.00      14.56  -25.05    0.89
#  31  -15.79   -0.06    0.00    8.98    0.29    0.00    0.00      -6.57   18.40    0.60
#  32  -23.41   -0.28    0.22    9.10    0.29    0.00    0.00     -14.08   18.71    0.60
#  33   19.18   -1.31    0.17   -8.94    0.57    0.00    0.00       9.68  -23.94    1.53
#  34   -6.53   -0.36    0.01    2.91   -0.09    0.00    0.00      -4.05   12.67   -0.38
#  35    1.07   -0.22    0.00   -0.73   -0.02    0.00    0.00       0.11   -5.36   -0.18
#  36    1.89   -0.78    0.38   -1.00   -0.03    0.00    0.00       0.45   -4.70   -0.16
#  37    0.38   -1.08    3.56    0.74   -0.08    0.00    0.00       3.52    2.37   -0.27
#  38    0.18   -0.44    0.45    0.71   -0.05    0.00    0.00       0.84    3.74   -0.28
#  39    0.14   -0.82    1.88    0.59   -0.07    0.00    0.00       1.72    2.23   -0.26
#  40   -1.96   -0.69    0.73    0.69   -0.10    0.00    0.00      -1.32    1.92   -0.27
#  41   -1.30   -0.43    0.08    0.59   -0.12    0.00    0.00      -1.18    1.42   -0.28
#  42   -1.23   -0.28    0.02    1.10   -0.09    0.00    0.00      -0.47    3.61   -0.28
#  43   -8.95   -0.01    0.00    1.75    0.06    0.00    0.00      -7.14   16.46    0.58
#  44  -26.98   -0.13    0.03    7.86    0.29    0.00    0.00     -18.92   15.87    0.59
#  45  -17.15   -0.09    0.00    6.02    0.37    0.00    0.00     -10.84    9.75    0.60
#  46   -1.89   -0.13    0.01    0.41   -0.03    0.00    0.00      -1.63    3.40   -0.26
#  47   -2.89   -0.42    0.20    0.73   -0.07    0.00    0.00      -2.45    2.72   -0.26
#  48   -0.99   -0.17    0.02    0.43   -0.04    0.00    0.00      -0.76    2.76   -0.25
#  49   -0.67   -0.02    0.00    0.07   -0.01    0.00    0.00      -0.62    2.76   -0.25
#  50   -1.02   -0.03    0.00    0.10   -0.01    0.00    0.00      -0.96    2.73   -0.27
#  51   -1.72   -0.10    0.01    0.31   -0.02    0.00    0.00      -1.53    3.40   -0.26
#  52  -12.92   -0.08    0.01    3.40    0.21    0.00    0.00      -9.38    9.77    0.60
#  53  -23.92   -0.12    0.01    8.44    0.31    0.00    0.00     -15.27   15.87    0.59
#  54  -12.55   -0.03    0.00    4.70    0.17    0.00    0.00      -7.71   16.43    0.58
#  55   -0.22   -0.06    0.00    0.15   -0.02    0.00    0.00      -0.16    2.38   -0.27
#  56   -0.90   -0.08    0.00    0.25   -0.02    0.00    0.00      -0.74    3.75   -0.28
#  57   -0.35   -0.04    0.00    0.08   -0.01    0.00    0.00      -0.31    2.23   -0.26
#  58   -0.98   -0.53    0.70    0.32   -0.06    0.00    0.00      -0.56    1.44   -0.28
#  59   -0.55   -0.11    0.02    0.35   -0.03    0.00    0.00      -0.32    3.59   -0.28
#  60   -1.12   -0.32    0.15    0.35   -0.05    0.00    0.00      -0.99    1.91   -0.26

@<TRIPOS>MOLECULE
          T541189        15
   60    62     0     0     0



@<TRIPOS>ATOM
      1 C1          4.1750    -8.3860    95.3254 C.3        1          -0.1803
      2 C2          4.7161    -6.9842    95.6140 C.3        1           0.4169
      3 C3          5.0268    -6.8378    97.1049 C.3        1          -0.1673
      4 N1          3.7347    -5.9674    95.1981 N.pl3      1          -0.7227
      5 C4          4.1752    -4.6553    95.1017 C.cat      1           0.7672
      6 N2          3.4852    -3.6602    95.5813 N.pl3      1          -0.7110
      7 H1          2.6367    -3.8258    96.0213 H          1           0.4523
      8 H2          3.8196    -2.7535    95.4984 H          1           0.4498
      9 N3          5.3991    -4.4631    94.4624 N.pl3      1          -0.6964
     10 C5          6.3744    -5.4256    94.7199 C.2        1           0.6129
     11 N4          7.6308    -5.1122    94.8613 N.2        1          -0.6578
     12 N5          5.9300    -6.7363    94.8171 N.pl3      1          -0.4982
     13 O1          6.6173    -7.7950    94.1754 O.3        1          -0.0852
     14 C6          6.7003    -7.6578    92.7554 C.3        1           0.0633
     15 C7          6.9859    -9.0019    92.1366 C.ar       1          -0.0657
     16 C8          7.1175   -10.1186    92.9409 C.ar       1          -0.0768
     17 C9          7.3791   -11.3525    92.3733 C.ar       1          -0.0241
     18 Cl1         7.5440   -12.7552    93.3826 Cl         1          -0.0259
     19 C10         7.5092   -11.4682    90.9994 C.ar       1          -0.0242
     20 Cl2         7.8369   -13.0163    90.2855 Cl         1          -0.0258
     21 C11         7.3771   -10.3500    90.1964 C.ar       1          -0.0768
     22 C12         7.1104    -9.1184    90.7649 C.ar       1          -0.0657
     23 C13         6.9604    -7.9012    89.8891 C.3        1           0.0630
     24 O2          8.2359    -7.2815    89.7124 O.3        1          -0.0852
     25 N6          8.3095    -6.4260    88.5864 N.pl3      1          -0.4983
     26 C14         7.4779    -5.3222    88.4649 C.2        1           0.6130
     27 N7          6.2027    -5.3891    88.7218 N.2        1          -0.6580
     28 N8          8.0855    -4.1371    88.0524 N.pl3      1          -0.6963
     29 C15         9.0799    -4.2716    87.0846 C.cat      1           0.7672
     30 N9          9.2231    -3.4084    86.1198 N.pl3      1          -0.7112
     31 H3          8.6279    -2.6448    86.0598 H          1           0.4497
     32 H4          9.9249    -3.5292    85.4611 H          1           0.4522
     33 N10         9.9088    -5.3772    87.2086 N.pl3      1          -0.7236
     34 C16         9.2763    -6.6704    87.5021 C.3        1           0.4174
     35 C17        10.3323    -7.6799    87.9569 C.3        1          -0.1801
     36 C18         8.5517    -7.1908    86.2591 C.3        1          -0.1672
     37 H5          3.2777    -8.5585    95.9198 H          1           0.0953
     38 H6          3.9313    -8.4705    94.2665 H          1           0.0993
     39 H7          4.9306    -9.1276    95.5846 H          1           0.0646
     40 H8          5.4113    -5.8364    97.2992 H          1           0.0972
     41 H9          4.1165    -6.9960    97.6830 H          1           0.0912
     42 H10         5.7743    -7.5764    97.3946 H          1           0.0964
     43 H11         2.8158    -6.2060    94.9993 H          1           0.4510
     44 H12         5.5617    -3.7082    93.8755 H          1           0.4535
     45 H13         7.9108    -4.1864    94.7879 H          1           0.3703
     46 H14         5.7548    -7.2745    92.3715 H          1           0.0807
     47 H15         7.5026    -6.9641    92.5037 H          1           0.0965
     48 H16         7.0163   -10.0275    94.0121 H          1           0.1528
     49 H17         7.4783   -10.4396    89.1250 H          1           0.1528
     50 H18         6.5633    -8.1986    88.9186 H          1           0.0967
     51 H19         6.2762    -7.1961    90.3611 H          1           0.0807
     52 H20         5.6470    -4.5998    88.6275 H          1           0.3703
     53 H21         7.8322    -3.2739    88.4154 H          1           0.4535
     54 H22        10.8704    -5.2997    87.1074 H          1           0.4509
     55 H23        11.0416    -7.8529    87.1476 H          1           0.0957
     56 H24        10.8607    -7.2864    88.8252 H          1           0.0995
     57 H25         9.8469    -8.6191    88.2217 H          1           0.0647
     58 H26         9.2759    -7.3681    85.4639 H          1           0.0912
     59 H27         8.0410    -8.1231    86.4998 H          1           0.0965
     60 H28         7.8220    -6.4518    85.9278 H          1           0.0974
@<TRIPOS>BOND
     1    1    2 1
     2    1   37 1
     3    1   38 1
     4    1   39 1
     5    2   12 1
     6    2    3 1
     7    2    4 1
     8    3   40 1
     9    3   41 1
    10    3   42 1
    11    4    5 1
    12    4   43 1
    13    5    6 2
    14    5    9 1
    15    6    7 1
    16    6    8 1
    17    9   10 1
    18    9   44 1
    19   10   11 2
    20   10   12 1
    21   11   45 1
    22   12   13 1
    23   13   14 1
    24   14   15 1
    25   14   46 1
    26   14   47 1
    27   15   22 ar
    28   15   16 ar
    29   16   17 ar
    30   16   48 1
    31   17   18 1
    32   17   19 ar
    33   19   20 1
    34   19   21 ar
    35   21   22 ar
    36   21   49 1
    37   22   23 1
    38   23   24 1
    39   23   50 1
    40   23   51 1
    41   24   25 1
    42   25   34 1
    43   25   26 1
    44   26   27 2
    45   26   28 1
    46   27   52 1
    47   28   29 1
    48   28   53 1
    49   29   30 2
    50   29   33 1
    51   30   31 1
    52   30   32 1
    53   33   34 1
    54   33   54 1
    55   34   35 1
    56   34   36 1
    57   35   55 1
    58   35   56 1
    59   35   57 1
    60   36   58 1
    61   36   59 1
    62   36   60 1
##########                 Name:              T536614
##########          Protonation:                   18
##########               SMILES:   C1CCC2(CC1)N=C([NH+]=C(N2OCCCCCCCC/N=c/3\[nH+]c([n-]c(n3)N)N)N)N
##########            Long Name:   ene)amino]octoxy]-7,11-diaza-9-azoniaspiro[5.5]undeca-7,9-diene-8,10-diamine
##########          FlexRecCode: 1
##########               Number:                   27
##########   Ligand Source File: /raidb/db2/rgc/tcams/tcams-0001533.db2.gz
##########           GlobalRank: 96
##########                 Rank:                    1
##########               Setnum:                   38
##########             Matchnum:                 4529
##########                Cloud:                    1
##########        Electrostatic:           -51.274040
##########        Van der Waals:           -24.938616
##########  Ligand Polar Desolv:            11.055688
########## Ligand Apolar Desolv:            -3.077822
##########      Internal Energy:             0.000000
##########      Receptor Energy: 0.0
########## Receptor Desolvation:             0.000000
########## Receptor Hydrophobic:             0.000000
##########         Total Energy: -68.23
##########        Ligand Charge:             1.000000
##########            Arbitrary:    +999.9990
##########     heavy atom count:   31
##########           pose count:    1
##########        Ligand Energy:             0.000000
# num electro vdwattr vdwrepu polsolv apolsol rdesolv rhydroe totalscore fullpol fullapo
#   1   19.82   -1.39    0.32   -0.86    0.26    0.00    0.00      18.16   -3.03    0.93
#   2   -7.05   -0.62    0.04    0.07   -1.10    0.00    0.00      -8.66    0.32   -5.00
#   3    5.12   -0.26    0.00    0.18    0.24    0.00    0.00       5.28    1.61    2.13
#   4   -1.84   -0.20    0.00   -0.03   -0.40    0.00    0.00      -2.47   -0.31   -4.77
#   5    0.45   -0.28    0.01    0.12    0.36    0.00    0.00       0.67    1.07    3.26
#   6   -0.06   -0.20    0.01    0.03   -0.06    0.00    0.00      -0.29    0.20   -0.48
#   7    0.08   -0.83    0.38   -0.12   -0.06    0.00    0.00      -0.55   -0.47   -0.24
#   8    0.07   -1.54    0.86   -0.31   -0.07    0.00    0.00      -0.98   -0.94   -0.22
#   9    0.29   -0.83    0.14   -0.40   -0.08    0.00    0.00      -0.87   -1.18   -0.22
#  10    1.51   -1.07    0.22   -0.60   -0.09    0.00    0.00      -0.03   -1.44   -0.22
#  11    1.22   -0.64    0.09   -0.53   -0.07    0.00    0.00       0.07   -1.64   -0.22
#  12    2.08   -0.76    0.06   -0.75   -0.10    0.00    0.00       0.53   -1.77   -0.24
#  13   -0.16   -0.63    0.03    0.14   -0.04    0.00    0.00      -0.67    0.38   -0.11
#  14    1.20   -0.85    0.10   -0.61    0.09    0.00    0.00      -0.07   -2.01    0.31
#  15    8.85   -0.88    0.04   -3.34    0.21    0.00    0.00       4.89  -10.09    0.64
#  16  -23.64   -1.36    0.35    6.73   -1.68    0.00    0.00     -19.59   18.69   -4.67
#  17   27.68   -1.78    1.36   -5.62    0.25    0.00    0.00      21.89  -20.55    0.92
#  18   24.74   -2.81    1.55   -7.44    0.49    0.00    0.00      16.53  -15.34    1.02
#  19  -24.91   -0.14    0.04    7.65    0.31    0.00    0.00     -17.06   14.53    0.58
#  20  -17.73   -3.08    1.54    7.14   -2.62    0.00    0.00     -14.76   13.33   -4.90
#  21   24.57   -5.30    3.41  -11.62    0.62    0.00    0.00      11.67  -17.91    0.95
#  22   11.80   -2.67    1.88   -5.44    1.40    0.00    0.00       6.96  -11.21    2.88
#  23   -5.85   -0.78    0.06    2.54   -0.11    0.00    0.00      -4.14    6.40   -0.28
#  24    1.73   -0.96    0.21   -0.65   -0.08    0.00    0.00       0.25   -1.88   -0.22
#  25    1.57   -1.25    0.38   -0.65   -0.10    0.00    0.00      -0.05   -1.54   -0.24
#  26    1.46   -1.57    0.89   -0.77   -0.12    0.00    0.00      -0.11   -1.57   -0.25
#  27    2.06   -2.06    1.00   -1.00   -0.13    0.00    0.00      -0.13   -1.79   -0.24
#  28    1.24   -1.40    0.35   -0.67   -0.09    0.00    0.00      -0.57   -1.41   -0.19
#  29    1.12   -0.25    0.00   -0.35    0.10    0.00    0.00       0.62   -3.55    1.00
#  30   -0.58    0.00    0.00    0.17    0.02    0.00    0.00      -0.40    4.07    0.40
#  31   -1.11   -0.62    0.08    0.81   -0.96    0.00    0.00      -1.79    4.22   -4.99
#  32    0.99   -0.95    0.15   -2.59    0.26    0.00    0.00      -2.14   -9.34    0.93
#  33    1.75   -1.16    0.27   -0.55    0.58    0.00    0.00       0.89   -2.07    2.18
#  34  -14.56   -0.05    0.00    0.94    0.20    0.00    0.00     -13.47    2.82    0.59
#  35  -11.74   -0.02    0.00    0.34    0.10    0.00    0.00     -11.32    2.00    0.59
#  36   -0.11   -0.05    0.00    0.01   -0.01    0.00    0.00      -0.17    0.13   -0.28
#  37   -0.01   -0.03    0.00    0.02   -0.01    0.00    0.00      -0.03    0.53   -0.20
#  38   -0.05   -0.30    0.25    0.04   -0.05    0.00    0.00      -0.12    0.20   -0.28
#  39   -0.02   -0.35    0.21   -0.01   -0.06    0.00    0.00      -0.22   -0.04   -0.28
#  40   -0.06   -1.30    2.16    0.22   -0.13    0.00    0.00       0.89    0.48   -0.28
#  41    0.01   -0.48    0.32    0.26   -0.07    0.00    0.00       0.03    1.01   -0.28
#  42   -0.13   -0.11    0.00    0.08   -0.03    0.00    0.00      -0.20    0.64   -0.28
#  43   -0.16   -0.41    0.20    0.09   -0.09    0.00    0.00      -0.37    0.28   -0.28
#  44   -1.56   -0.38    0.10    0.21   -0.09    0.00    0.00      -1.73    0.64   -0.28
#  45   -0.93   -0.64    0.29    0.53   -0.13    0.00    0.00      -0.87    1.13   -0.28
#  46    0.10   -0.44    0.41    0.25   -0.06    0.00    0.00       0.26    1.19   -0.28
#  47   -0.91   -0.09    0.00    0.06   -0.02    0.00    0.00      -0.97    0.65   -0.28
#  48   -2.36   -0.28    0.05    0.29   -0.08    0.00    0.00      -2.37    1.04   -0.27
#  49   -1.22   -0.36    0.05    0.73   -0.11    0.00    0.00      -0.91    1.85   -0.28
#  50   -1.60   -0.15    0.00    0.26   -0.04    0.00    0.00      -1.52    1.98   -0.28
#  51   -1.89   -0.31    0.04    0.29   -0.06    0.00    0.00      -1.93    0.96   -0.20
#  52  -10.97   -0.01    0.00    1.46    0.06    0.00    0.00      -9.45   13.02    0.58
#  53  -23.91   -0.12    0.05    4.03    0.16    0.00    0.00     -19.79   14.97    0.59
#  54  -15.29   -0.13    0.01    8.21    0.43    0.00    0.00      -6.77   11.32    0.59
#  55  -11.12   -0.09    0.00    6.18    0.42    0.00    0.00      -4.61    8.85    0.60
#  56   -0.48   -0.20    0.01    0.28   -0.05    0.00    0.00      -0.43    1.51   -0.28
#  57   -1.78   -0.68    0.65    0.20   -0.07    0.00    0.00      -1.68    0.78   -0.28
#  58   -0.75   -0.38    0.12    0.36   -0.06    0.00    0.00      -0.71    1.49   -0.25
#  59   -1.31   -0.75    0.66    0.24   -0.10    0.00    0.00      -1.25    0.70   -0.28
#  60   -0.46   -0.70    0.65    0.18   -0.09    0.00    0.00      -0.43    0.54   -0.28
#  61   -1.02   -0.50    0.26    0.12   -0.11    0.00    0.00      -1.25    0.32   -0.28
#  62   -1.32   -1.79    4.09    1.01   -0.04    0.00    0.00       1.95    1.82   -0.07
#  63   -1.37   -0.48    0.07    0.23   -0.15    0.00    0.00      -1.71    0.44   -0.28
#  64   -1.52   -0.47    0.09    0.28   -0.12    0.00    0.00      -1.74    0.63   -0.28
#  65   -0.37   -0.67    0.36    0.35   -0.08    0.00    0.00      -0.41    0.94   -0.22
#  66   -0.45   -0.01    0.00    0.85    0.07    0.00    0.00       0.45    7.28    0.59
#  67   -0.41   -0.03    0.00    1.80    0.18    0.00    0.00       1.54    5.91    0.59

@<TRIPOS>MOLECULE
          T536614        18
   67    69     0     0     0



@<TRIPOS>ATOM
      1 N1          5.0184    -5.7950    89.7294 N.pl3      1          -0.7956
      2 C1          3.7814    -6.3741    89.6333 C.2        1           0.6408
      3 N2          3.5777    -7.5817    90.1164 N.2        1          -0.6200
      4 C2          2.3598    -8.1546    90.0230 C.2        1           0.5715
      5 N3          2.1668    -9.3652    90.5106 N.2        1          -0.5917
      6 C3          0.8181    -9.9367    90.5395 C.3        1           0.0646
      7 C4          0.6963   -10.8970    91.7243 C.3        1          -0.1159
      8 C5          0.9558   -10.1362    93.0262 C.3        1          -0.1193
      9 C6         -0.0714    -9.0119    93.1733 C.3        1          -0.1199
     10 C7          0.1881    -8.2512    94.4752 C.3        1          -0.1185
     11 C8          1.5966    -7.6544    94.4450 C.3        1          -0.1162
     12 C9          1.8560    -6.8936    95.7469 C.3        1          -0.1122
     13 C10         3.2646    -6.2969    95.7168 C.3        1           0.0084
     14 O1          4.2240    -7.3469    95.5794 O.3        1          -0.1017
     15 N4          5.5666    -6.8988    95.5409 N.pl3      1          -0.4653
     16 C11         5.9994    -6.0368    94.5624 C.cat      1           0.7449
     17 N5          5.4289    -6.0455    93.3203 N.pl3      1          -0.7686
     18 N6          6.9800    -5.1999    94.8498 N.pl3      1          -0.6240
     19 H1          7.2864    -4.5712    94.1778 H          1           0.4403
     20 C12         7.5574    -5.2096    96.0637 C.2        1           0.6172
     21 N7          8.3768    -4.1591    96.4243 N.pl3      1          -0.8153
     22 N8          7.3654    -6.1842    96.9122 N.2        1          -0.5796
     23 C13         6.5415    -7.3355    96.5495 C.3        1           0.3630
     24 C14         7.4230    -8.4378    95.9620 C.3        1          -0.1310
     25 C15         8.4357    -8.8972    97.0132 C.3        1          -0.1169
     26 C16         7.6907    -9.4292    98.2391 C.3        1          -0.1228
     27 C17         6.8186    -8.3191    98.8292 C.3        1          -0.1451
     28 C18         5.8029    -7.8582    97.7817 C.3        1          -0.1067
     29 N9          1.3379    -7.4988    89.4351 N.pl3      1          -0.6757
     30 H2          0.4660    -7.9193    89.3732 H          1           0.4122
     31 C19         1.5193    -6.2902    88.9456 C.cat      1           0.6697
     32 N10         0.4804    -5.6269    88.3498 N.pl3      1          -0.8116
     33 N11         2.7500    -5.6972    89.0391 N.2        1          -0.6622
     34 H3          5.1648    -4.9029    89.3780 H          1           0.4181
     35 H4          5.7472    -6.2755    90.1524 H          1           0.4220
     36 H5          0.0862    -9.1358    90.6444 H          1           0.0795
     37 H6          0.6332   -10.4786    89.6120 H          1           0.0159
     38 H7         -0.3071   -11.3220    91.7458 H          1           0.0544
     39 H8          1.4281   -11.6980    91.6196 H          1           0.0745
     40 H9          0.8690   -10.8205    93.8703 H          1           0.0661
     41 H10         1.9592    -9.7110    93.0048 H          1           0.0578
     42 H11         0.0153    -8.3279    92.3291 H          1           0.0604
     43 H12        -1.0749    -9.4372    93.1948 H          1           0.0655
     44 H13        -0.5438    -7.4502    94.5801 H          1           0.0678
     45 H14         0.1014    -8.9354    95.3193 H          1           0.0638
     46 H15         2.3285    -8.4554    94.3402 H          1           0.0654
     47 H16         1.6833    -6.9703    93.6009 H          1           0.0702
     48 H17         1.1242    -6.0927    95.8517 H          1           0.0856
     49 H18         1.7693    -7.5778    96.5910 H          1           0.0792
     50 H19         3.3513    -5.6125    94.8728 H          1           0.0660
     51 H20         3.4494    -5.7549    96.6443 H          1           0.0838
     52 H21         4.7097    -6.6651    93.1213 H          1           0.4503
     53 H22         5.7433    -5.4320    92.6379 H          1           0.4403
     54 H23         8.5289    -3.4280    95.8051 H          1           0.4185
     55 H24         8.8006    -4.1518    97.2968 H          1           0.4404
     56 H25         6.8001    -9.2814    95.6648 H          1           0.0626
     57 H26         7.9532    -8.0532    95.0907 H          1           0.1073
     58 H27         9.0597    -9.6874    96.5959 H          1           0.0646
     59 H28         9.0629    -8.0552    97.3061 H          1           0.0776
     60 H29         7.0605   -10.2685    97.9450 H          1           0.0736
     61 H30         8.4115    -9.7608    98.9865 H          1           0.0695
     62 H31         6.2913    -8.6979    99.7047 H          1           0.0956
     63 H32         7.4481    -7.4781    99.1198 H          1           0.0769
     64 H33         5.1857    -7.0628    98.1997 H          1           0.1066
     65 H34         5.1690    -8.6977    97.4963 H          1           0.0760
     66 H35        -0.3915    -6.0472    88.2879 H          1           0.4158
     67 H36         0.6163    -4.7365    87.9897 H          1           0.4316
@<TRIPOS>BOND
     1    1    2 1
     2    1   34 1
     3    1   35 1
     4    2   33 1
     5    2    3 2
     6    3    4 1
     7    4    5 2
     8    4   29 1
     9    5    6 1
    10    6    7 1
    11    6   36 1
    12    6   37 1
    13    7    8 1
    14    7   38 1
    15    7   39 1
    16    8    9 1
    17    8   40 1
    18    8   41 1
    19    9   10 1
    20    9   42 1
    21    9   43 1
    22   10   11 1
    23   10   44 1
    24   10   45 1
    25   11   12 1
    26   11   46 1
    27   11   47 1
    28   12   13 1
    29   12   48 1
    30   12   49 1
    31   13   14 1
    32   13   50 1
    33   13   51 1
    34   14   15 1
    35   15   23 1
    36   15   16 1
    37   16   17 1
    38   16   18 2
    39   17   52 1
    40   17   53 1
    41   18   19 1
    42   18   20 1
    43   20   21 1
    44   20   22 2
    45   21   54 1
    46   21   55 1
    47   22   23 1
    48   23   28 1
    49   23   24 1
    50   24   25 1
    51   24   56 1
    52   24   57 1
    53   25   26 1
    54   25   58 1
    55   25   59 1
    56   26   27 1
    57   26   60 1
    58   26   61 1
    59   27   28 1
    60   27   62 1
    61   27   63 1
    62   28   64 1
    63   28   65 1
    64   29   30 1
    65   29   31 2
    66   31   32 1
    67   31   33 1
    68   32   66 1
    69   32   67 1
##########                 Name:              T530068
##########          Protonation:                   67
##########               SMILES:   CCOc1c(cc(cc1OC)I)C[NH2+]CCC[NH+]=c2[nH]c3ccccc3[nH]2
##########            Long Name:   -ylidene-[3-[(2-ethoxy-5-iodo-3-methoxy-phenyl)methylammonio]propyl]ammonium
##########          FlexRecCode: 1
##########               Number:                  106
##########   Ligand Source File: /raidb/db2/rgc/tcams/tcams-0000648.db2.gz
##########           GlobalRank: 97
##########                 Rank:                    1
##########               Setnum:                  238
##########             Matchnum:                 3539
##########                Cloud:                    1
##########        Electrostatic:           -41.503708
##########        Van der Waals:           -34.059963
##########  Ligand Polar Desolv:            11.847147
########## Ligand Apolar Desolv:            -4.462284
##########      Internal Energy:             0.000000
##########      Receptor Energy: 0.0
########## Receptor Desolvation:             0.000000
########## Receptor Hydrophobic:             0.000000
##########         Total Energy: -68.18
##########        Ligand Charge:             2.000000
##########            Arbitrary:    +999.9990
##########     heavy atom count:   27
##########           pose count:    1
##########        Ligand Energy:             0.000000
# num electro vdwattr vdwrepu polsolv apolsol rdesolv rhydroe totalscore fullpol fullapo
#   1    0.43   -0.86    0.41   -0.95   -0.05    0.00    0.00      -1.02   -4.03   -0.21
#   2   -0.29   -0.72    0.13    0.43   -0.03    0.00    0.00      -0.48    1.58   -0.12
#   3   -0.35   -2.92    2.58   -2.98    0.18    0.00    0.00      -3.49   -8.86    0.53
#   4   -0.25   -1.73    0.45    0.97   -0.09    0.00    0.00      -0.65    2.79   -0.27
#   5    0.97   -1.21    0.17   -0.63   -0.12    0.00    0.00      -0.83   -1.99   -0.37
#   6   -0.52   -0.64    0.08    0.80   -0.10    0.00    0.00      -0.38    3.02   -0.39
#   7    6.84   -0.70    0.07   -6.64    0.20    0.00    0.00      -0.23  -23.96    0.74
#   8   -2.71   -0.02    0.00    4.43    0.11    0.00    0.00       1.81   22.89    0.57
#   9   -8.10   -0.01    0.00    3.10    0.08    0.00    0.00      -4.93   20.84    0.53
#  10    0.11   -0.45    0.03    0.01   -0.09    0.00    0.00      -0.39    0.06   -0.40
#  11    4.39   -0.55    0.03   -2.47   -0.07    0.00    0.00       1.32   -8.16   -0.24
#  12   -3.03   -0.86    0.12    1.01   -0.14    0.00    0.00      -2.89    2.99   -0.41
#  13   19.00   -2.44    0.86  -11.37    0.71    0.00    0.00       6.75  -26.17    1.64
#  14  -14.77   -0.06    0.00    9.52    0.26    0.00    0.00      -5.05   20.77    0.57
#  15  -15.24   -2.35    0.87   10.98   -2.03    0.00    0.00      -7.78   26.79   -4.95
#  16   10.21   -1.22    0.19   -7.03    0.39    0.00    0.00       2.54  -20.87    1.16
#  17   -1.56   -1.26    0.12    1.07   -0.32    0.00    0.00      -1.95    2.61   -0.77
#  18    1.75   -1.73    0.70   -1.02   -0.19    0.00    0.00      -0.48   -2.65   -0.48
#  19    1.79   -2.45    1.17   -1.56   -0.23    0.00    0.00      -1.28   -3.25   -0.47
#  20    1.77   -1.98    0.24   -2.08   -0.31    0.00    0.00      -2.35   -3.19   -0.47
#  21    2.00   -2.60    0.67   -1.87   -0.31    0.00    0.00      -2.11   -2.93   -0.48
#  22   -1.88   -2.31    0.61    1.13   -0.39    0.00    0.00      -2.84    2.21   -0.77
#  23   13.54   -5.26    6.05  -10.18    0.60    0.00    0.00       4.77  -20.53    1.21
#  24    0.90   -1.31    0.16   -0.70   -0.16    0.00    0.00      -1.10   -1.97   -0.44
#  25    0.73   -1.53    0.26   -0.79   -0.13    0.00    0.00      -1.45   -1.85   -0.30
#  26   -0.17   -9.98    5.65   -1.21   -0.92    0.00    0.00      -6.63   -2.07   -1.58
#  27    0.97   -1.70    0.41   -1.83   -0.20    0.00    0.00      -2.35   -3.80   -0.41
#  28   -0.62   -1.69    0.26    0.45   -0.14    0.00    0.00      -1.73    1.01   -0.31
#  29    2.13   -2.55    1.77   -3.03    0.32    0.00    0.00      -1.36   -5.86    0.62
#  30   -0.16   -2.35    1.35    0.19    0.02    0.00    0.00      -0.95    0.31    0.03
#  31   -0.26   -0.09    0.00    0.43   -0.03    0.00    0.00       0.05    4.58   -0.28
#  32   -0.17   -0.43    0.21    0.13   -0.08    0.00    0.00      -0.35    0.44   -0.28
#  33   -0.01   -0.37    0.43    0.21   -0.04    0.00    0.00       0.21    1.38   -0.28
#  34   -0.57   -0.21    0.02    0.75   -0.06    0.00    0.00      -0.06    3.53   -0.26
#  35   -0.43   -0.12    0.01   -0.05   -0.03    0.00    0.00      -0.63   -0.51   -0.28
#  36   -2.14   -0.22    0.04    1.34   -0.04    0.00    0.00      -1.02    7.71   -0.25
#  37   -0.43   -0.26    0.08    1.70   -0.05    0.00    0.00       1.05   10.10   -0.27
#  38   -4.49   -0.22    0.07    1.38   -0.05    0.00    0.00      -3.32    8.50   -0.28
#  39   -1.89   -0.10    0.00    0.91   -0.03    0.00    0.00      -1.10    9.57   -0.28
#  40   -2.21   -0.13    0.00    0.66   -0.03    0.00    0.00      -1.71    6.11   -0.28
#  41   -3.38   -0.23    0.01    1.23   -0.06    0.00    0.00      -2.44    5.44   -0.28
#  42   -4.74   -0.59    0.33    2.07   -0.09    0.00    0.00      -3.02    6.34   -0.28
#  43   -2.32   -0.14    0.01    1.01   -0.04    0.00    0.00      -1.49    6.61   -0.28
#  44   -6.51   -0.01    0.00    2.57    0.08    0.00    0.00      -3.87   19.49    0.57
#  45   -2.37   -0.32    0.12    1.18   -0.07    0.00    0.00      -1.44    4.87   -0.28
#  46   -3.72   -0.65    0.35    1.22   -0.12    0.00    0.00      -2.92    2.77   -0.28
#  47   -3.75   -0.55    0.21    1.29   -0.15    0.00    0.00      -2.95    2.46   -0.28
#  48   -3.61   -1.28    1.38    1.94   -0.14    0.00    0.00      -1.72    3.80   -0.28
#  49  -10.21   -0.32    0.16    9.70    0.33    0.00    0.00      -0.34   17.25    0.59
#  50   -2.25   -0.26    0.03    1.60   -0.06    0.00    0.00      -0.94    6.94   -0.28
#  51   -1.14   -0.37    0.08    0.67   -0.10    0.00    0.00      -0.86    1.53   -0.22
#  52   -1.69   -1.04    0.87    1.11   -0.18    0.00    0.00      -0.92    1.76   -0.28
#  53   -0.50   -0.56    0.14    0.59   -0.15    0.00    0.00      -0.47    1.09   -0.27
#  54   -0.59   -0.89    0.78    0.48   -0.16    0.00    0.00      -0.38    0.82   -0.27

@<TRIPOS>MOLECULE
          T530068        67
   54    56     0     0     0



@<TRIPOS>ATOM
      1 C1          6.2458   -12.6006    92.1034 C.3        1          -0.1527
      2 C2          7.0853   -11.9253    93.1898 C.3        1           0.0569
      3 O1          6.2578   -11.6299    94.3167 O.3        1          -0.3360
      4 C3          6.8537   -11.0236    95.3782 C.ar       1           0.0987
      5 C4          6.8968    -9.6406    95.4534 C.ar       1          -0.1470
      6 C5          6.2833    -8.8071    94.3581 C.3        1           0.0563
      7 N1          5.4949    -7.7198    94.9534 N.4        1          -0.5085
      8 H1          4.7637    -8.1104    95.5283 H          1           0.4311
      9 H2          6.0956    -7.1404    95.5205 H          1           0.4359
     10 C6          4.8969    -6.9072    93.8856 C.3        1          -0.0053
     11 C7          4.0758    -5.7748    94.5057 C.3        1          -0.1684
     12 C8          3.4529    -4.9284    93.3935 C.3        1           0.0996
     13 N2          2.6668    -3.8441    93.9872 N.pl3      1          -0.6557
     14 H3          3.0963    -3.1934    94.5642 H          1           0.4444
     15 C9          1.3874    -3.7537    93.7393 C.cat      1           0.6653
     16 N3          0.6645    -4.6102    92.9484 N.pl3      1          -0.5783
     17 C10        -0.6607    -4.1766    92.9353 C.ar       1           0.0772
     18 C11        -1.8025    -4.6573    92.3110 C.ar       1          -0.0849
     19 C12        -3.0081    -4.0053    92.4832 C.ar       1          -0.0744
     20 C13        -3.0816    -2.8735    93.2761 C.ar       1          -0.0739
     21 C14        -1.9500    -2.3871    93.9014 C.ar       1          -0.0836
     22 C15        -0.7349    -3.0357    93.7351 C.ar       1           0.0802
     23 N4          0.5446    -2.7897    94.2317 N.pl3      1          -0.5774
     24 C16         7.5020    -9.0256    96.5334 C.ar       1          -0.0828
     25 C17         8.0659    -9.7877    97.5404 C.ar       1          -0.0686
     26 I1          8.9810    -8.8487    99.1744 I          1           0.0087
     27 C18         8.0267   -11.1683    97.4709 C.ar       1          -0.1327
     28 C19         7.4163   -11.7906    96.3938 C.ar       1           0.1279
     29 O2          7.3719   -13.1482    96.3267 O.3        1          -0.2952
     30 C20         7.9697   -13.8708    97.4049 C.3        1           0.0151
     31 H4          6.8771   -12.8259    91.2440 H          1           0.0567
     32 H5          5.8213   -13.5251    92.4947 H          1           0.0732
     33 H6          5.4411   -11.9319    91.7979 H          1           0.0869
     34 H7          7.8902   -12.5940    93.4952 H          1           0.0571
     35 H8          7.5101   -11.0008    92.7985 H          1           0.0706
     36 H9          7.0733    -8.3851    93.7368 H          1           0.1418
     37 H10         5.6344    -9.4329    93.7452 H          1           0.1473
     38 H11         5.6869    -6.4852    93.2643 H          1           0.1414
     39 H12         4.2481    -7.5331    93.2729 H          1           0.1424
     40 H13         3.2858    -6.1968    95.1268 H          1           0.1091
     41 H14         4.7246    -5.1489    95.1183 H          1           0.1093
     42 H15         4.2431    -4.5065    92.7723 H          1           0.1063
     43 H16         2.8041    -5.5544    92.7808 H          1           0.1063
     44 H17         1.0146    -5.3835    92.4790 H          1           0.4541
     45 H18        -1.7489    -5.5399    91.6909 H          1           0.1501
     46 H19        -3.8965    -4.3801    91.9969 H          1           0.1573
     47 H20        -4.0272    -2.3683    93.4062 H          1           0.1576
     48 H21        -2.0111    -1.5031    94.5188 H          1           0.1514
     49 H22         0.7959    -2.0617    94.8213 H          1           0.4585
     50 H23         7.5348    -7.9475    96.5908 H          1           0.1475
     51 H24         8.4677   -11.7614    98.2584 H          1           0.1535
     52 H25         7.8649   -14.9412    97.2270 H          1           0.1175
     53 H26         9.0272   -13.6153    97.4714 H          1           0.0660
     54 H27         7.4727   -13.6073    98.3385 H          1           0.0661
@<TRIPOS>BOND
     1    1    2 1
     2    1   31 1
     3    1   32 1
     4    1   33 1
     5    2    3 1
     6    2   34 1
     7    2   35 1
     8    3    4 1
     9    4   28 ar
    10    4    5 ar
    11    5    6 1
    12    5   24 ar
    13    6    7 1
    14    6   36 1
    15    6   37 1
    16    7    8 1
    17    7    9 1
    18    7   10 1
    19   10   11 1
    20   10   38 1
    21   10   39 1
    22   11   12 1
    23   11   40 1
    24   11   41 1
    25   12   13 1
    26   12   42 1
    27   12   43 1
    28   13   14 1
    29   13   15 2
    30   15   23 1
    31   15   16 1
    32   16   17 1
    33   16   44 1
    34   17   22 ar
    35   17   18 ar
    36   18   19 ar
    37   18   45 1
    38   19   20 ar
    39   19   46 1
    40   20   21 ar
    41   20   47 1
    42   21   22 ar
    43   21   48 1
    44   22   23 1
    45   23   49 1
    46   24   25 ar
    47   24   50 1
    48   25   26 1
    49   25   27 ar
    50   27   28 ar
    51   27   51 1
    52   28   29 1
    53   29   30 1
    54   30   52 1
    55   30   53 1
    56   30   54 1
##########                 Name:              T528934
##########          Protonation:                   72
##########               SMILES:   C[NH+](C)Cc1cccc(c1)c2ccc(cc2)/N=c/3\[nH]c(cc[nH+]3)NC[C@@H](c4ccccc4)O
##########            Long Name:   o]-1H-pyrimidin-3-ium-2-ylidene]amino]phenyl]phenyl]methyl-dimethyl-ammonium
##########          FlexRecCode: 1
##########               Number:                  380
##########   Ligand Source File: /raidb/db2/rgc/tcams/tcams-0000512.db2.gz
##########           GlobalRank: 99
##########                 Rank:                    1
##########               Setnum:                   20
##########             Matchnum:                 2364
##########                Cloud:                    1
##########        Electrostatic:           -55.833717
##########        Van der Waals:           -25.946012
##########  Ligand Polar Desolv:            16.673466
########## Ligand Apolar Desolv:            -3.058767
##########      Internal Energy:             0.000000
##########      Receptor Energy: 0.0
########## Receptor Desolvation:             0.000000
########## Receptor Hydrophobic:             0.000000
##########         Total Energy: -68.17
##########        Ligand Charge:             2.000000
##########            Arbitrary:    +999.9990
##########     heavy atom count:   33
##########           pose count:    1
##########        Ligand Energy:             0.000000
# num electro vdwattr vdwrepu polsolv apolsol rdesolv rhydroe totalscore fullpol fullapo
#   1    0.68   -0.36    0.01   -0.40   -0.11    0.00    0.00      -0.18   -1.74   -0.48
#   2    9.10   -0.77    0.05   -4.67    0.16    0.00    0.00       3.87  -13.77    0.46
#   3  -12.52   -0.02    0.00    4.73    0.15    0.00    0.00      -7.66   17.66    0.56
#   4    1.88   -1.97    1.46   -1.01   -0.20    0.00    0.00       0.16   -2.32   -0.46
#   5   -0.63   -0.58    0.09    0.52   -0.10    0.00    0.00      -0.70    1.96   -0.36
#   6    1.81   -0.39    0.01   -0.53   -0.05    0.00    0.00       0.86   -3.40   -0.33
#   7    0.66   -0.21    0.00   -0.23   -0.04    0.00    0.00       0.19   -2.74   -0.45
#   8    0.70   -0.13    0.00   -0.20   -0.02    0.00    0.00       0.34   -3.81   -0.47
#   9    0.68   -0.17    0.00   -0.20   -0.03    0.00    0.00       0.27   -2.98   -0.44
#  10    0.53   -0.33    0.01   -0.23   -0.05    0.00    0.00      -0.07   -1.81   -0.41
#  11    1.33   -0.54    0.03   -0.46   -0.06    0.00    0.00       0.31   -2.47   -0.33
#  12    0.85   -0.50    0.03   -0.32   -0.08    0.00    0.00      -0.02   -1.67   -0.41
#  13    2.51   -1.94    0.85   -0.62   -0.14    0.00    0.00       0.66   -1.97   -0.44
#  14    2.66   -2.52    1.43   -1.13   -0.16    0.00    0.00       0.28   -3.34   -0.46
#  15   -1.39   -0.94    0.21    0.52   -0.14    0.00    0.00      -1.74    2.18   -0.58
#  16    1.37   -0.36    0.01   -0.57   -0.05    0.00    0.00       0.41   -4.10   -0.37
#  17    0.68   -0.28    0.01   -0.26   -0.05    0.00    0.00       0.09   -2.33   -0.44
#  18    6.97   -1.15    0.31   -3.71    0.53    0.00    0.00       2.94  -14.40    2.04
#  19  -11.65   -0.88    0.06    4.95   -1.37    0.00    0.00      -8.89   16.67   -4.62
#  20   14.42   -0.76    0.02   -5.40    0.28    0.00    0.00       8.57  -18.76    0.96
#  21  -13.18   -1.13    0.08    6.74   -0.81    0.00    0.00      -8.31   17.08   -2.04
#  22   14.27   -1.34    0.13   -8.33    0.68    0.00    0.00       5.41  -20.23    1.65
#  23   -0.85   -0.57    0.03    0.61   -0.12    0.00    0.00      -0.90    1.92   -0.36
#  24   -1.82   -0.81    0.07    1.51   -0.05    0.00    0.00      -1.10    3.98   -0.14
#  25    9.09   -1.52    0.50   -6.46    0.76    0.00    0.00       2.37  -14.10    1.66
#  26    1.01   -1.30    0.24   -0.91   -0.11    0.00    0.00      -1.08   -2.76   -0.34
#  27    0.24   -2.40    0.86   -1.02   -0.17    0.00    0.00      -2.48   -2.65   -0.44
#  28    0.27   -1.88    0.45   -1.07   -0.18    0.00    0.00      -2.42   -2.83   -0.47
#  29    0.52   -1.18    0.17   -0.84   -0.14    0.00    0.00      -1.47   -2.75   -0.47
#  30    0.88   -1.08    0.24   -0.73   -0.12    0.00    0.00      -0.81   -2.90   -0.47
#  31    1.11   -1.00    0.13   -0.72   -0.12    0.00    0.00      -0.60   -2.64   -0.45
#  32    9.17   -2.16    0.54   -5.11   -0.22    0.00    0.00       2.23  -10.88   -0.46
#  33   -9.11   -2.58    1.24    5.02   -0.45    0.00    0.00      -5.87   10.92   -0.97
#  34   13.36   -1.22    0.10   -6.43    0.38    0.00    0.00       6.19  -16.96    1.01
#  35  -11.01   -0.02    0.00    3.57    0.14    0.00    0.00      -7.32   15.12    0.59
#  36   -0.37   -0.08    0.00    0.41   -0.02    0.00    0.00      -0.06    4.76   -0.28
#  37   -1.97   -0.14    0.01    0.70   -0.04    0.00    0.00      -1.44    4.71   -0.28
#  38   -1.58   -0.07    0.00    0.30   -0.02    0.00    0.00      -1.37    4.71   -0.28
#  39   -4.68   -0.62    0.39    2.19   -0.12    0.00    0.00      -2.83    5.29   -0.28
#  40   -5.02   -1.19    1.98    1.51   -0.09    0.00    0.00      -2.80    3.70   -0.21
#  41   -3.89   -0.65    0.43    1.89   -0.10    0.00    0.00      -2.32    5.07   -0.28
#  42   -1.77   -0.22    0.03    1.15   -0.05    0.00    0.00      -0.86    6.22   -0.28
#  43   -1.89   -0.37    0.27    1.11   -0.05    0.00    0.00      -0.93    6.05   -0.28
#  44   -0.64   -0.04    0.00    0.22   -0.01    0.00    0.00      -0.47    4.97   -0.28
#  45   -0.61   -0.02    0.00    0.06   -0.01    0.00    0.00      -0.58    2.23   -0.28
#  46   -0.80   -0.03    0.00    0.08   -0.01    0.00    0.00      -0.76    2.24   -0.21
#  47   -2.23   -0.23    0.04    1.11   -0.04    0.00    0.00      -1.35    5.90   -0.21
#  48   -6.23   -1.05    1.57    1.74   -0.07    0.00    0.00      -4.05    5.02   -0.21
#  49   -5.08   -1.54    2.92    1.18   -0.12    0.00    0.00      -2.66    2.71   -0.28
#  50   -0.51   -0.06    0.00    0.16   -0.01    0.00    0.00      -0.42    3.08   -0.28
#  51   -0.53   -0.04    0.00    0.11   -0.01    0.00    0.00      -0.47    2.95   -0.21
#  52  -10.39   -0.01    0.00    1.51    0.04    0.00    0.00      -8.85   12.94    0.32
#  53  -10.56   -0.04    0.00    5.21    0.20    0.00    0.00      -5.18   14.43    0.56
#  54   -1.26   -0.15    0.01    0.44   -0.03    0.00    0.00      -0.99    3.59   -0.28
#  55   -2.54   -0.17    0.01    0.61   -0.05    0.00    0.00      -2.14    3.74   -0.28
#  56   -1.10   -0.43    0.11    1.09   -0.10    0.00    0.00      -0.43    3.03   -0.28
#  57   -7.78   -0.02    0.00    3.44    0.32    0.00    0.00      -4.05   10.90    1.00
#  58   -0.13   -1.14    1.38    1.75   -0.09    0.00    0.00       1.77    4.29   -0.23
#  59   -0.32   -0.42    0.08    1.14   -0.10    0.00    0.00       0.39    3.19   -0.28
#  60   -0.92   -0.18    0.01    0.45   -0.05    0.00    0.00      -0.69    2.38   -0.28
#  61   -1.22   -0.17    0.04    0.28   -0.04    0.00    0.00      -1.11    2.06   -0.28
#  62   -2.36   -0.15    0.01    0.47   -0.04    0.00    0.00      -2.07    3.11   -0.28
#  63   -5.99   -0.59    0.13    4.46   -0.15    0.00    0.00      -2.15    8.39   -0.28
#  64   -8.08   -1.05    1.13    5.32   -0.13    0.00    0.00      -2.80   11.64   -0.28

@<TRIPOS>MOLECULE
          T528934        72
   64    67     0     0     0



@<TRIPOS>ATOM
      1 C1         10.1397    -6.6951    87.9099 C.3        1          -0.0490
      2 N1          9.2419    -5.6766    87.3494 N.4        1          -0.3858
      3 H1          8.8933    -5.0898    88.0926 H          1           0.4268
      4 C2          9.9788    -4.8537    86.3809 C.3        1          -0.0541
      5 C3          8.1148    -6.3347    86.6754 C.3        1           0.0407
      6 C4          7.3587    -7.1786    87.6688 C.ar       1          -0.1523
      7 C5          7.7183    -8.4998    87.8678 C.ar       1          -0.0882
      8 C6          7.0292    -9.2803    88.7782 C.ar       1          -0.1041
      9 C7          5.9779    -8.7445    89.4941 C.ar       1          -0.0783
     10 C8          5.6108    -7.4141    89.2980 C.ar       1          -0.0399
     11 C9          6.3127    -6.6308    88.3826 C.ar       1          -0.0904
     12 C10         4.4822    -6.8329    90.0636 C.ar       1          -0.0543
     13 C11         4.4759    -5.4715    90.3700 C.ar       1          -0.0851
     14 C12         3.4328    -4.9319    91.0779 C.ar       1          -0.0993
     15 C13         2.3744    -5.7475    91.4931 C.ar       1           0.0977
     16 C14         2.3826    -7.1124    91.1848 C.ar       1          -0.1665
     17 C15         3.4247    -7.6469    90.4718 C.ar       1          -0.0814
     18 N2          1.3360    -5.2128    92.1979 N.2        1          -0.5141
     19 C16         1.3851    -5.1718    93.5222 C.2        1           0.5752
     20 N3          2.5368    -5.5478    94.1713 N.pl3      1          -0.6367
     21 C17         2.5868    -5.5049    95.5370 C.2        1           0.5515
     22 N4          3.7255    -5.8751    96.2054 N.pl3      1          -0.6481
     23 C18         4.7245    -6.7155    95.5405 C.3        1           0.0461
     24 C19         5.4435    -7.5744    96.5828 C.3        1           0.1462
     25 O1          6.4455    -6.7921    97.2356 O.3        1          -0.5413
     26 C20         6.0906    -8.7532    95.9025 C.ar       1          -0.1349
     27 C21         6.2423    -9.9464    96.5835 C.ar       1          -0.1081
     28 C22         6.8359   -11.0277    95.9595 C.ar       1          -0.1146
     29 C23         7.2773   -10.9159    94.6543 C.ar       1          -0.1052
     30 C24         7.1247    -9.7228    93.9729 C.ar       1          -0.1121
     31 C25         6.5272    -8.6428    94.5956 C.ar       1          -0.1018
     32 C26         1.4675    -5.0805    96.2339 C.2        1          -0.3262
     33 C27         0.3288    -4.7115    95.5285 C.2        1           0.2993
     34 N5          0.3162    -4.7601    94.2102 N.pl3      1          -0.5462
     35 H2         -0.4849    -4.4958    93.7317 H          1           0.4647
     36 H3         10.5163    -7.3290    87.1070 H          1           0.1266
     37 H4         10.9761    -6.2068    88.4100 H          1           0.1262
     38 H5          9.5929    -7.3057    88.6286 H          1           0.1238
     39 H6          9.3125    -4.0979    85.9650 H          1           0.1224
     40 H7         10.8151    -4.3652    86.8810 H          1           0.1202
     41 H8         10.3554    -5.4874    85.5780 H          1           0.1254
     42 H9          7.4488    -5.5789    86.2593 H          1           0.1371
     43 H10         8.4915    -6.9686    85.8725 H          1           0.1410
     44 H11         8.5402    -8.9233    87.3096 H          1           0.1363
     45 H12         7.3141   -10.3111    88.9291 H          1           0.1413
     46 H13         5.4403    -9.3550    90.2046 H          1           0.1359
     47 H14         6.0354    -5.5982    88.2296 H          1           0.1339
     48 H15         5.2933    -4.8423    90.0496 H          1           0.1347
     49 H16         3.4286    -3.8783    91.3152 H          1           0.1405
     50 H17         1.5666    -7.7435    91.5046 H          1           0.1279
     51 H18         3.4291    -8.6994    90.2294 H          1           0.1367
     52 H19         3.3092    -5.8422    93.6637 H          1           0.4437
     53 H20         3.8697    -5.5804    97.1182 H          1           0.4497
     54 H21         4.2307    -7.3620    94.8151 H          1           0.1028
     55 H22         5.4495    -6.0825    95.0289 H          1           0.0942
     56 H23         4.7234    -7.9304    97.3195 H          1           0.1285
     57 H24         7.1213    -6.4417    96.6392 H          1           0.3819
     58 H25         5.8976   -10.0340    97.6032 H          1           0.1209
     59 H26         6.9551   -11.9599    96.4918 H          1           0.1273
     60 H27         7.7416   -11.7604    94.1669 H          1           0.1280
     61 H28         7.4698    -9.6352    92.9533 H          1           0.1308
     62 H29         6.4046    -7.7118    94.0620 H          1           0.1276
     63 H30         1.4795    -5.0373    97.3130 H          1           0.1997
     64 H31        -0.5494    -4.3792    96.0622 H          1           0.2248
@<TRIPOS>BOND
     1    1    2 1
     2    1   36 1
     3    1   37 1
     4    1   38 1
     5    2    3 1
     6    2    4 1
     7    2    5 1
     8    4   39 1
     9    4   40 1
    10    4   41 1
    11    5    6 1
    12    5   42 1
    13    5   43 1
    14    6   11 ar
    15    6    7 ar
    16    7    8 ar
    17    7   44 1
    18    8    9 ar
    19    8   45 1
    20    9   10 ar
    21    9   46 1
    22   10   11 ar
    23   10   12 1
    24   11   47 1
    25   12   17 ar
    26   12   13 ar
    27   13   14 ar
    28   13   48 1
    29   14   15 ar
    30   14   49 1
    31   15   16 ar
    32   15   18 1
    33   16   17 ar
    34   16   50 1
    35   17   51 1
    36   18   19 2
    37   19   34 1
    38   19   20 1
    39   20   21 1
    40   20   52 1
    41   21   22 1
    42   21   32 2
    43   22   23 1
    44   22   53 1
    45   23   24 1
    46   23   54 1
    47   23   55 1
    48   24   25 1
    49   24   26 1
    50   24   56 1
    51   25   57 1
    52   26   31 ar
    53   26   27 ar
    54   27   28 ar
    55   27   58 1
    56   28   29 ar
    57   28   59 1
    58   29   30 ar
    59   29   60 1
    60   30   31 ar
    61   30   61 1
    62   31   62 1
    63   32   33 1
    64   32   63 1
    65   33   34 2
    66   33   64 1
    67   34   35 1
##########                 Name:              T537904
##########          Protonation:                   15
##########               SMILES:   CCOc1ccccc1CON2C(=[NH2+])NC(=[NH2+])NC2(C)C
##########            Long Name:   -1-[(2-ethoxyphenyl)methoxy]-6,6-dimethyl-1,3,5-triazinan-2-ylidene]ammonium
##########          FlexRecCode: 1
##########               Number:                  223
##########   Ligand Source File: /raidb/db2/rgc/tcams/tcams-0001689.db2.gz
##########           GlobalRank: 99
##########                 Rank:                    1
##########               Setnum:                   93
##########             Matchnum:                  448
##########                Cloud:                    1
##########        Electrostatic:           -68.039246
##########        Van der Waals:           -26.381668
##########  Ligand Polar Desolv:            28.934837
########## Ligand Apolar Desolv:            -2.679935
##########      Internal Energy:             0.000000
##########      Receptor Energy: 0.0
########## Receptor Desolvation:             0.000000
########## Receptor Hydrophobic:             0.000000
##########         Total Energy: -68.17
##########        Ligand Charge:             2.000000
##########            Arbitrary:    +999.9990
##########     heavy atom count:   21
##########           pose count:    1
##########        Ligand Energy:             0.000000
# num electro vdwattr vdwrepu polsolv apolsol rdesolv rhydroe totalscore fullpol fullapo
#   1    0.85   -0.83    0.18   -0.83   -0.06    0.00    0.00      -0.69   -2.95   -0.21
#   2   -0.44   -1.10    0.24    0.35   -0.04    0.00    0.00      -0.99    0.95   -0.11
#   3    0.62   -1.78    0.45   -2.48    0.33    0.00    0.00      -2.86   -6.33    0.83
#   4   -0.81   -1.52    0.20    0.90   -0.13    0.00    0.00      -1.35    2.17   -0.31
#   5    1.32   -1.92    0.34   -2.35   -0.24    0.00    0.00      -2.85   -4.20   -0.42
#   6    0.40   -2.47    1.01   -1.25   -0.27    0.00    0.00      -2.57   -2.18   -0.47
#   7    1.78   -2.41    1.22   -1.93   -0.25    0.00    0.00      -1.59   -3.58   -0.47
#   8    0.85   -1.64    0.29   -0.61   -0.21    0.00    0.00      -1.32   -1.30   -0.44
#   9    1.33   -1.32    0.15   -0.99   -0.15    0.00    0.00      -0.98   -2.67   -0.41
#  10   -0.74   -0.80    0.10    0.85   -0.04    0.00    0.00      -0.63    2.57   -0.12
#  11    0.51   -1.12    0.14   -1.20    0.13    0.00    0.00      -1.54   -3.42    0.37
#  12    7.43   -0.90    0.05   -6.91    0.29    0.00    0.00      -0.04  -20.68    0.87
#  13  -18.17   -0.91    0.08   10.17   -1.25    0.00    0.00     -10.08   35.35   -4.36
#  14   12.99   -0.73    0.05   -7.37    0.22    0.00    0.00       5.16  -30.05    0.89
#  15   -4.63   -0.01    0.00    2.47    0.05    0.00    0.00      -2.11   20.37    0.45
#  16  -11.63   -0.01    0.00    3.81    0.10    0.00    0.00      -7.74   23.74    0.60
#  17   26.46   -2.34    1.89  -13.06    0.49    0.00    0.00      13.43  -30.85    1.15
#  18  -28.27   -2.18    0.55   18.51   -2.24    0.00    0.00     -13.63   37.38   -4.52
#  19   29.17   -3.68    1.27  -17.48    0.50    0.00    0.00       9.78  -31.30    0.89
#  20  -26.65   -0.12    0.01   13.81    0.34    0.00    0.00     -12.60   24.51    0.60
#  21  -18.18   -0.08    0.00   13.49    0.34    0.00    0.00      -4.43   23.67    0.60
#  22   18.93   -3.18    2.14  -14.49    0.69    0.00    0.00       4.10  -31.93    1.53
#  23   -7.48   -0.86    0.08    6.84   -0.15    0.00    0.00      -1.56   17.66   -0.38
#  24    3.42   -0.64    0.03   -2.92   -0.07    0.00    0.00      -0.18   -7.97   -0.18
#  25    2.59   -1.82    0.55   -3.29   -0.08    0.00    0.00      -2.04   -6.64   -0.16
#  26   -0.61   -0.17    0.02    0.27   -0.05    0.00    0.00      -0.55    1.49   -0.28
#  27    0.02   -0.73    1.15    0.48   -0.08    0.00    0.00       0.84    1.76   -0.28
#  28   -0.45   -0.13    0.01    0.15   -0.03    0.00    0.00      -0.46    1.25   -0.28
#  29   -1.01   -0.73    0.60    0.31   -0.10    0.00    0.00      -0.94    0.82   -0.27
#  30   -0.73   -0.21    0.02    0.23   -0.06    0.00    0.00      -0.76    1.05   -0.27
#  31   -1.15   -0.44    0.07    0.84   -0.11    0.00    0.00      -0.79    1.67   -0.22
#  32   -0.71   -0.63    0.16    0.81   -0.16    0.00    0.00      -0.53    1.39   -0.28
#  33   -2.20   -0.66    0.39    1.19   -0.14    0.00    0.00      -1.42    2.34   -0.28
#  34   -2.18   -0.32    0.03    1.99   -0.09    0.00    0.00      -0.57    5.29   -0.25
#  35   -1.17   -0.40    0.14    1.21   -0.05    0.00    0.00      -0.27    5.07   -0.22
#  36   -0.91   -0.20    0.03    0.65   -0.04    0.00    0.00      -0.48    3.83   -0.26
#  37  -25.56   -0.10    0.03   10.48    0.24    0.00    0.00     -14.91   26.07    0.59
#  38  -12.73   -0.20    0.05    9.76    0.26    0.00    0.00      -2.85   21.46    0.58
#  39   -2.62   -0.24    0.01    0.88   -0.08    0.00    0.00      -2.04    2.85   -0.27
#  40   -2.52   -0.12    0.00    0.38   -0.02    0.00    0.00      -2.28    4.30   -0.28
#  41   -0.65   -0.26    0.05    1.18   -0.06    0.00    0.00       0.26    5.10   -0.26
#  42   -1.88   -0.93    0.81    1.32   -0.14    0.00    0.00      -0.82    2.56   -0.28
#  43   -0.93   -0.97    1.21    1.83   -0.13    0.00    0.00       1.00    4.00   -0.28
#  44   -1.69   -0.54    0.15    0.94   -0.12    0.00    0.00      -1.26    2.06   -0.26

@<TRIPOS>MOLECULE
          T537904        15
   44    45     0     0     0



@<TRIPOS>ATOM
      1 C1          6.9951   -12.2686    93.1390 C.3        1          -0.1538
      2 C2          7.5285   -12.5178    94.5512 C.3        1           0.0519
      3 O1          6.8276   -11.6868    95.4787 O.3        1          -0.3238
      4 C3          7.5071   -11.2887    96.5862 C.ar       1           0.1517
      5 C4          8.0070   -12.2328    97.4716 C.ar       1          -0.1974
      6 C5          8.6978   -11.8257    98.5962 C.ar       1          -0.0534
      7 C6          8.8916   -10.4784    98.8401 C.ar       1          -0.1478
      8 C7          8.3942    -9.5357    97.9597 C.ar       1          -0.0665
      9 C8          7.7074    -9.9380    96.8303 C.ar       1          -0.1537
     10 C9          7.1709    -8.9100    95.8677 C.3        1           0.0707
     11 O2          5.8467    -8.5391    96.2561 O.3        1          -0.0657
     12 N1          5.4171    -7.2985    95.7257 N.pl3      1          -0.4862
     13 C10         5.8815    -6.8339    94.5031 C.cat      1           0.7641
     14 N2          5.9744    -7.6112    93.4622 N.pl3      1          -0.6714
     15 H1          5.7153    -8.5436    93.5282 H          1           0.4613
     16 H2          6.3028    -7.2576    92.6206 H          1           0.4596
     17 N3          6.2424    -5.4887    94.4519 N.pl3      1          -0.6704
     18 C11         5.4250    -4.6092    95.1595 C.cat      1           0.7710
     19 N4          5.1168    -3.4320    94.6951 N.pl3      1          -0.6674
     20 H3          5.4588    -3.1457    93.8336 H          1           0.4602
     21 H4          4.5455    -2.8415    95.2108 H          1           0.4685
     22 N5          4.9573    -5.0586    96.3866 N.pl3      1          -0.7067
     23 C12         4.4518    -6.4470    96.4453 C.3        1           0.4039
     24 C13         3.0805    -6.5338    95.7725 C.3        1          -0.1924
     25 C14         4.3457    -6.9004    97.9028 C.3        1          -0.1744
     26 H5          7.5298   -12.9024    92.4316 H          1           0.0670
     27 H6          5.9314   -12.5038    93.1057 H          1           0.0653
     28 H7          7.1441   -11.2220    92.8737 H          1           0.0885
     29 H8          7.3795   -13.5645    94.8164 H          1           0.0714
     30 H9          8.5923   -12.2824    94.5845 H          1           0.0704
     31 H10         7.8557   -13.2853    97.2818 H          1           0.1412
     32 H11         9.0867   -12.5602    99.2859 H          1           0.1386
     33 H12         9.4320   -10.1620    99.7200 H          1           0.1357
     34 H13         8.5464    -8.4840    98.1525 H          1           0.1318
     35 H14         7.8135    -8.0298    95.8808 H          1           0.0742
     36 H15         7.1503    -9.3298    94.8620 H          1           0.1004
     37 H16         7.0165    -5.1830    93.9540 H          1           0.4808
     38 H17         4.9598    -4.4860    97.1696 H          1           0.4662
     39 H18         2.3720    -5.9027    96.3087 H          1           0.1141
     40 H19         3.1604    -6.1944    94.7397 H          1           0.1246
     41 H20         2.7323    -7.5666    95.7895 H          1           0.0695
     42 H21         3.6313    -6.2676    98.4291 H          1           0.1011
     43 H22         4.0079    -7.9362    97.9373 H          1           0.1154
     44 H23         5.3224    -6.8207    98.3801 H          1           0.1118
@<TRIPOS>BOND
     1    1    2 1
     2    1   26 1
     3    1   27 1
     4    1   28 1
     5    2    3 1
     6    2   29 1
     7    2   30 1
     8    3    4 1
     9    4    9 ar
    10    4    5 ar
    11    5    6 ar
    12    5   31 1
    13    6    7 ar
    14    6   32 1
    15    7    8 ar
    16    7   33 1
    17    8    9 ar
    18    8   34 1
    19    9   10 1
    20   10   11 1
    21   10   35 1
    22   10   36 1
    23   11   12 1
    24   12   23 1
    25   12   13 1
    26   13   14 2
    27   13   17 1
    28   14   15 1
    29   14   16 1
    30   17   18 1
    31   17   37 1
    32   18   19 2
    33   18   22 1
    34   19   20 1
    35   19   21 1
    36   22   23 1
    37   22   38 1
    38   23   24 1
    39   23   25 1
    40   24   39 1
    41   24   40 1
    42   24   41 1
    43   25   42 1
    44   25   43 1
    45   25   44 1
##########                 Name:              T368825
##########          Protonation:                   94
##########               SMILES:   c1cc(cc(c1)Cl)NC(=O)N2CCC[NH+](CC2)CCCCCNC(=O)/C=C\c3ccc(c(c3)Cl)Cl
##########            Long Name:   4-dichlorophenyl)prop-2-enoyl]amino]pentyl]-1,4-diazepan-4-ium-1-carboxamide
##########          FlexRecCode: 1
##########               Number:                  386
##########   Ligand Source File: /raidb/db2/rgc/tcams/tcams-0000599.db2.gz
##########           GlobalRank: 100
##########                 Rank:                    1
##########               Setnum:                  238
##########             Matchnum:                  419
##########                Cloud:                    1
##########        Electrostatic:           -37.563797
##########        Van der Waals:           -34.618153
##########  Ligand Polar Desolv:             8.910620
########## Ligand Apolar Desolv:            -4.838146
##########      Internal Energy:             0.000000
##########      Receptor Energy: 0.0
########## Receptor Desolvation:             0.000000
########## Receptor Hydrophobic:             0.000000
##########         Total Energy: -68.11
##########        Ligand Charge:             1.000000
##########            Arbitrary:    +999.9990
##########     heavy atom count:   35
##########           pose count:    1
##########        Ligand Energy:             0.000000
# num electro vdwattr vdwrepu polsolv apolsol rdesolv rhydroe totalscore fullpol fullapo
#   1    0.38   -4.72    1.57   -0.25   -0.60    0.00    0.00      -3.61   -0.41   -0.99
#   2    0.13   -1.71    0.38   -0.17   -0.16    0.00    0.00      -1.52   -0.32   -0.30
#   3    1.45   -2.30    0.99   -0.59   -0.25    0.00    0.00      -0.69   -1.09   -0.46
#   4    1.38   -2.23    0.59   -0.48   -0.26    0.00    0.00      -1.01   -0.87   -0.47
#   5    1.96   -1.63    0.22   -0.79   -0.23    0.00    0.00      -0.47   -1.59   -0.46
#   6   -1.38   -1.38    0.17    0.69   -0.25    0.00    0.00      -2.16    1.86   -0.68
#   7    5.14   -1.21    0.15   -3.37    0.56    0.00    0.00       1.26  -10.14    1.67
#   8   -7.47   -1.17    0.14    3.58   -0.71    0.00    0.00      -5.63   10.22   -2.03
#   9    5.67   -1.64    0.26   -2.54    0.13    0.00    0.00       1.88   -5.85    0.31
#  10   11.14   -0.79    0.04   -3.80    0.41    0.00    0.00       7.00  -13.27    1.44
#  11   -2.22   -0.64    0.03    0.67   -0.16    0.00    0.00      -2.31    1.99   -0.46
#  12    5.53   -1.12    0.16   -1.93   -0.11    0.00    0.00       2.53   -4.37   -0.24
#  13    0.36   -1.24    0.34   -0.11   -0.14    0.00    0.00      -0.79   -0.28   -0.36
#  14   14.10   -1.80    1.43   -3.27    0.05    0.00    0.00      10.50  -11.16    0.18
#  15  -24.68   -0.17    0.07    4.91    0.13    0.00    0.00     -19.74   16.76    0.44
#  16    0.61   -1.19    0.39   -0.03   -0.11    0.00    0.00      -0.32   -0.11   -0.35
#  17    3.87   -0.94    0.26   -1.13   -0.06    0.00    0.00       2.00   -4.02   -0.20
#  18    0.54   -0.80    0.15   -0.82   -0.06    0.00    0.00      -0.99   -2.94   -0.22
#  19    0.37   -0.34    0.02   -0.45   -0.04    0.00    0.00      -0.43   -2.39   -0.22
#  20   -0.20   -0.42    0.04    0.31   -0.09    0.00    0.00      -0.35    1.53   -0.42
#  21    0.94   -0.33    0.01   -1.38    0.33    0.00    0.00      -0.44   -9.84    2.33
#  22   -0.60   -0.46    0.01    1.00   -0.12    0.00    0.00      -0.17    4.97   -0.58
#  23    0.51   -0.75    0.05   -0.90    0.09    0.00    0.00      -1.01   -2.79    0.29
#  24    0.24   -0.45    0.02   -0.42   -0.09    0.00    0.00      -0.69   -2.20   -0.45
#  25    0.02   -0.39    0.02   -0.10   -0.07    0.00    0.00      -0.53   -0.58   -0.44
#  26    0.11   -0.44    0.03   -0.04   -0.05    0.00    0.00      -0.40   -0.25   -0.31
#  27    0.04   -0.35    0.01   -0.02   -0.05    0.00    0.00      -0.36   -0.14   -0.31
#  28    0.18   -0.53    0.03   -0.10   -0.10    0.00    0.00      -0.53   -0.44   -0.46
#  29    0.06   -0.57    0.03   -0.03   -0.07    0.00    0.00      -0.58   -0.13   -0.30
#  30    0.57   -1.41    0.11   -0.03   -0.27    0.00    0.00      -1.02   -0.09   -0.95
#  31    0.29   -0.72    0.09   -0.03   -0.07    0.00    0.00      -0.45   -0.13   -0.30
#  32    0.80   -1.86    0.25   -0.03   -0.31    0.00    0.00      -1.16   -0.08   -0.95
#  33    0.23   -0.71    0.08   -0.11   -0.11    0.00    0.00      -0.62   -0.43   -0.45
#  34    1.03   -0.42    0.03   -0.07   -0.08    0.00    0.00       0.50   -0.33   -0.39
#  35   -2.46   -0.51    0.04    0.55   -0.10    0.00    0.00      -2.47    2.24   -0.42
#  36    0.78   -1.45    0.20   -0.41   -0.16    0.00    0.00      -1.04   -1.01   -0.40
#  37   -1.65   -0.69    0.77    0.42   -0.15    0.00    0.00      -1.30    0.80   -0.28
#  38   -3.33   -0.63    0.21    1.15   -0.15    0.00    0.00      -2.75    2.10   -0.28
#  39   -2.11   -0.29    0.02    1.09   -0.10    0.00    0.00      -1.40    3.10   -0.28
#  40   -2.45   -0.02    0.00    1.57    0.07    0.00    0.00      -0.82    8.85    0.41
#  41   -1.83   -0.13    0.00    0.26   -0.02    0.00    0.00      -1.73    2.30   -0.20
#  42   -2.13   -0.31    0.05    0.56   -0.07    0.00    0.00      -1.91    2.10   -0.28
#  43   -4.34   -0.55    0.14    2.04   -0.13    0.00    0.00      -2.85    4.51   -0.28
#  44   -4.13   -0.50    0.26    1.93   -0.10    0.00    0.00      -2.54    4.83   -0.25
#  45   -3.35   -0.19    0.01    0.56   -0.05    0.00    0.00      -3.01    2.77   -0.24
#  46   -6.01   -0.91    0.90    2.66   -0.09    0.00    0.00      -3.45    6.19   -0.22
#  47   -2.18   -0.14    0.01    0.66   -0.04    0.00    0.00      -1.68    4.63   -0.26
#  48   -4.61   -0.94    0.82    1.57   -0.11    0.00    0.00      -3.27    3.93   -0.27
#  49   -3.72   -0.79    0.78    1.18   -0.07    0.00    0.00      -2.63    3.90   -0.23
#  50   -1.75   -0.10    0.01    0.35   -0.03    0.00    0.00      -1.52    3.76   -0.28
#  51   -0.51   -0.74    0.61    0.44   -0.10    0.00    0.00      -0.30    1.22   -0.28
#  52   -0.30   -0.15    0.01    0.20   -0.04    0.00    0.00      -0.28    1.35   -0.28
#  53   -0.28   -0.04    0.00    0.09   -0.01    0.00    0.00      -0.24    2.22   -0.28
#  54   -0.24   -0.12    0.01    0.23   -0.03    0.00    0.00      -0.14    1.99   -0.28
#  55   -0.10   -0.34    0.12    0.05   -0.07    0.00    0.00      -0.34    0.20   -0.28
#  56   -0.13   -0.09    0.00    0.04   -0.03    0.00    0.00      -0.20    0.40   -0.28
#  57   -0.48    0.00    0.00    0.29    0.02    0.00    0.00      -0.17    7.82    0.56
#  58   -0.13   -0.14    0.02    0.56   -0.04    0.00    0.00       0.26    3.52   -0.28
#  59   -0.20   -0.08    0.00    0.23   -0.03    0.00    0.00      -0.07    2.52   -0.28
#  60   -0.15   -0.05    0.00    0.05   -0.01    0.00    0.00      -0.15    1.17   -0.24
#  61   -0.13   -0.17    0.02    0.17   -0.05    0.00    0.00      -0.17    0.85   -0.28
#  62   -0.59   -0.17    0.02    0.22   -0.06    0.00    0.00      -0.59    1.00   -0.28
#  63   -1.93   -0.09    0.00    0.20   -0.02    0.00    0.00      -1.85    2.29   -0.28
#  64   -2.47   -0.08    0.00    0.42   -0.02    0.00    0.00      -2.15    5.82   -0.26
#  65   -3.32   -0.29    0.09    1.15   -0.06    0.00    0.00      -2.45    4.97   -0.28
#  66   -1.78   -0.12    0.01    0.11   -0.03    0.00    0.00      -1.81    0.93   -0.24
#  67   -0.64   -0.27    0.02    0.16   -0.05    0.00    0.00      -0.78    0.60   -0.19

@<TRIPOS>MOLECULE
          T368825        94
   67    69     0     0     0



@<TRIPOS>ATOM
      1 Cl1         8.9418   -12.9610    97.8068 Cl         1          -0.0561
      2 C1          8.4756   -11.2888    97.8164 C.ar       1          -0.0162
      3 C2          8.9526   -10.4435    98.8034 C.ar       1          -0.1198
      4 C3          8.5832    -9.1114    98.8139 C.ar       1          -0.0820
      5 C4          7.7372    -8.6196    97.8390 C.ar       1          -0.1408
      6 C5          7.2570    -9.4644    96.8471 C.ar       1           0.1582
      7 N1          6.3999    -8.9684    95.8583 N.am       1          -0.6756
      8 C6          5.5721    -7.9420    96.1371 C.2        1           0.7008
      9 O1          5.1486    -7.7920    97.2669 O.2        1          -0.5484
     10 N2          5.2137    -7.0817    95.1634 N.am       1          -0.6366
     11 C7          4.3080    -5.9384    95.4440 C.3        1           0.0949
     12 C8          4.5583    -4.6072    94.7760 C.3        1          -0.1569
     13 C9          3.8801    -4.6136    93.3905 C.3        1          -0.0099
     14 N3          4.5501    -5.4532    92.4663 N.4        1          -0.3662
     15 H1          5.4989    -5.1249    92.3665 H          1           0.4170
     16 C10         3.8818    -5.3361    91.1633 C.3        1          -0.0209
     17 C11         4.8312    -5.8057    90.0592 C.3        1          -0.1460
     18 C12         4.1353    -5.6837    88.7021 C.3        1          -0.1154
     19 C13         2.8755    -6.5521    88.6951 C.3        1          -0.1321
     20 C14         2.1796    -6.4300    87.3381 C.3        1           0.1183
     21 N4          0.9734    -7.2616    87.3313 N.am       1          -0.7311
     22 C15        -0.2051    -6.7426    87.7292 C.2        1           0.5390
     23 O2         -0.2672    -5.5832    88.0940 O.2        1          -0.5213
     24 C16        -1.4103    -7.5735    87.7226 C.2        1          -0.2157
     25 C17        -1.7417    -8.2893    88.8163 C.2        1          -0.0110
     26 C18        -1.0217    -8.0753    90.0818 C.ar       1          -0.0593
     27 C19        -0.3257    -9.1305    90.6812 C.ar       1          -0.0283
     28 C20         0.3471    -8.9234    91.8662 C.ar       1          -0.1092
     29 C21         0.3356    -7.6738    92.4643 C.ar       1          -0.0181
     30 Cl2         1.1863    -7.4223    93.9565 Cl         1          -0.0474
     31 C22        -0.3519    -6.6232    91.8764 C.ar       1          -0.0398
     32 Cl3        -0.3594    -5.0612    92.6340 Cl         1          -0.0463
     33 C23        -1.0251    -6.8149    90.6876 C.ar       1          -0.0782
     34 C24         4.5869    -6.8702    92.8396 C.3        1          -0.0473
     35 C25         5.7160    -7.2411    93.7750 C.3        1           0.1147
     36 C26         7.6330   -10.8011    96.8354 C.ar       1          -0.1202
     37 H2          9.6141   -10.8255    99.5668 H          1           0.1395
     38 H3          8.9565    -8.4544    99.5857 H          1           0.1419
     39 H4          7.4491    -7.5787    97.8484 H          1           0.1327
     40 H5          6.4016    -9.3633    94.9723 H          1           0.4091
     41 H6          3.2976    -6.2506    95.1797 H          1           0.0922
     42 H7          4.3197    -5.7700    96.5208 H          1           0.0945
     43 H8          4.1381    -3.8071    95.3854 H          1           0.1279
     44 H9          5.6307    -4.4527    94.6579 H          1           0.0945
     45 H10         2.8528    -4.9603    93.5020 H          1           0.1286
     46 H11         3.8679    -3.5966    92.9987 H          1           0.1382
     47 H12         2.9845    -5.9549    91.1582 H          1           0.1345
     48 H13         3.6070    -4.2960    90.9881 H          1           0.1315
     49 H14         5.7286    -5.1869    90.0643 H          1           0.0870
     50 H15         5.1061    -6.8458    90.2344 H          1           0.0894
     51 H16         3.8604    -4.6436    88.5270 H          1           0.0797
     52 H17         4.8115    -6.0183    87.9155 H          1           0.0785
     53 H18         3.1503    -7.5922    88.8704 H          1           0.0738
     54 H19         2.1992    -6.2175    89.4817 H          1           0.0746
     55 H20         1.9048    -5.3900    87.1628 H          1           0.0697
     56 H21         2.8558    -6.7647    86.5514 H          1           0.0693
     57 H22         1.0230    -8.1856    87.0405 H          1           0.4014
     58 H23        -2.0339    -7.6133    86.8417 H          1           0.1387
     59 H24        -2.5356    -9.0195    88.7636 H          1           0.1463
     60 H25        -0.3159   -10.1053    90.2165 H          1           0.1260
     61 H26         0.8844    -9.7376    92.3298 H          1           0.1397
     62 H27        -1.5568    -5.9949    90.2280 H          1           0.1432
     63 H28         3.6413    -7.1257    93.3177 H          1           0.1317
     64 H29         4.6812    -7.4641    91.9305 H          1           0.1467
     65 H30         6.5680    -6.5813    93.6117 H          1           0.1025
     66 H31         6.0123    -8.2763    93.6052 H          1           0.1340
     67 H32         7.2644   -11.4597    96.0628 H          1           0.1563
@<TRIPOS>BOND
     1    1    2 1
     2    2   36 ar
     3    2    3 ar
     4    3    4 ar
     5    3   37 1
     6    4    5 ar
     7    4   38 1
     8    5    6 ar
     9    5   39 1
    10    6    7 1
    11    6   36 ar
    12    7    8 am
    13    7   40 1
    14    8    9 2
    15    8   10 am
    16   10   35 1
    17   10   11 1
    18   11   12 1
    19   11   41 1
    20   11   42 1
    21   12   13 1
    22   12   43 1
    23   12   44 1
    24   13   14 1
    25   13   45 1
    26   13   46 1
    27   14   15 1
    28   14   16 1
    29   14   34 1
    30   16   17 1
    31   16   47 1
    32   16   48 1
    33   17   18 1
    34   17   49 1
    35   17   50 1
    36   18   19 1
    37   18   51 1
    38   18   52 1
    39   19   20 1
    40   19   53 1
    41   19   54 1
    42   20   21 1
    43   20   55 1
    44   20   56 1
    45   21   22 am
    46   21   57 1
    47   22   23 2
    48   22   24 1
    49   24   25 2
    50   24   58 1
    51   25   26 1
    52   25   59 1
    53   26   33 ar
    54   26   27 ar
    55   27   28 ar
    56   27   60 1
    57   28   29 ar
    58   28   61 1
    59   29   30 1
    60   29   31 ar
    61   31   32 1
    62   31   33 ar
    63   33   62 1
    64   34   35 1
    65   34   63 1
    66   34   64 1
    67   35   65 1
    68   35   66 1
    69   36   67 1
##########                 Name:              T526520
##########          Protonation:                   15
##########               SMILES:   ccc(cc2)Nc3[nH]/c(=N\c4ccc(cc4)C(=O)NCC[NH+]5CC[C@@H](CC5)c6ccncc6)/[nH+]cc3
##########            Long Name:   ium-2-ylidene]amino]-N-[2-[4-(4-pyridyl)piperidin-1-ium-1-yl]ethyl]benzamide
##########          FlexRecCode: 1
##########               Number:                  207
##########   Ligand Source File: /raidb/db2/rgc/tcams/tcams-0000241.db2.gz
##########           GlobalRank: 101
##########                 Rank:                    1
##########               Setnum:                  243
##########             Matchnum:                 1522
##########                Cloud:                    1
##########        Electrostatic:           -36.912258
##########        Van der Waals:           -36.898174
##########  Ligand Polar Desolv:            10.112105
########## Ligand Apolar Desolv:            -4.350523
##########      Internal Energy:             0.000000
##########      Receptor Energy: 0.0
########## Receptor Desolvation:             0.000000
########## Receptor Hydrophobic:             0.000000
##########         Total Energy: -68.05
##########        Ligand Charge:             2.000000
##########            Arbitrary:    +999.9990
##########     heavy atom count:   44
##########           pose count:    1
##########        Ligand Energy:             0.000000
# num electro vdwattr vdwrepu polsolv apolsol rdesolv rhydroe totalscore fullpol fullapo
#   1    0.80   -0.89    0.37   -1.64    0.07    0.00    0.00      -1.29  -10.28    0.41
#   2   -3.94   -0.40    0.03    1.68   -0.09    0.00    0.00      -2.71   12.41   -0.65
#   3    8.14   -0.35    0.01   -3.11    0.34    0.00    0.00       5.04  -21.07    2.31
#   4   -0.73   -0.27    0.03    0.30   -0.05    0.00    0.00      -0.73    2.25   -0.41
#   5    0.15   -0.21    0.02    0.04   -0.04    0.00    0.00      -0.03    0.39   -0.36
#   6    2.15   -0.11    0.00   -0.86    0.02    0.00    0.00       1.19  -14.90    0.27
#   7   -3.08    0.00    0.00    0.58    0.02    0.00    0.00      -2.49   19.23    0.54
#   8    0.03   -0.06    0.00    0.01   -0.01    0.00    0.00      -0.03    0.32   -0.37
#   9    0.22   -0.06    0.00   -0.24   -0.01    0.00    0.00      -0.09   -4.51   -0.22
#  10    0.10   -0.20    0.03   -0.16   -0.02    0.00    0.00      -0.24   -1.53   -0.16
#  11    0.47   -0.32    0.07   -0.62   -0.03    0.00    0.00      -0.43   -4.86   -0.22
#  12    0.02   -0.13    0.00    0.07   -0.03    0.00    0.00      -0.06    0.92   -0.38
#  13    0.11   -0.95    0.69   -0.06   -0.05    0.00    0.00      -0.27   -0.42   -0.34
#  14    0.37   -0.90    0.54   -0.44   -0.06    0.00    0.00      -0.49   -2.92   -0.42
#  15   -0.21   -1.02    0.38    0.04   -0.22    0.00    0.00      -1.03    0.20   -0.98
#  16    0.82   -1.56    0.42   -1.69    0.64    0.00    0.00      -1.37   -5.40    2.05
#  17   -0.20   -1.65    0.60    0.02   -0.31    0.00    0.00      -1.53    0.07   -0.98
#  18    0.30   -1.08    0.55   -0.67   -0.10    0.00    0.00      -1.00   -3.07   -0.46
#  19    1.36   -0.36    0.02   -0.56   -0.06    0.00    0.00       0.40   -4.18   -0.41
#  20    1.23   -0.63    0.07   -0.09   -0.08    0.00    0.00       0.49   -0.50   -0.45
#  21    4.45   -0.90    0.13   -1.24   -0.09    0.00    0.00       2.35   -5.11   -0.36
#  22   -1.49   -0.53    0.03    0.65   -0.11    0.00    0.00      -1.44    3.48   -0.60
#  23    0.55   -0.30    0.01   -0.40   -0.05    0.00    0.00      -0.20   -3.38   -0.46
#  24    0.09   -0.38    0.03   -0.18   -0.06    0.00    0.00      -0.50   -1.49   -0.45
#  25    4.99   -1.19    0.48   -3.62    0.47    0.00    0.00       1.12  -15.79    2.04
#  26   -8.22   -0.99    0.18    5.00   -1.22    0.00    0.00      -5.26   18.76   -4.59
#  27   12.10   -0.69    0.02   -5.57    0.20    0.00    0.00       6.06  -20.41    0.73
#  28  -14.65   -1.26    0.18    6.72   -0.60    0.00    0.00      -9.62   17.91   -1.61
#  29   18.70   -1.79    0.49  -10.00    0.48    0.00    0.00       7.87  -21.56    1.03
#  30   -2.20   -1.30    0.11    1.89   -0.30    0.00    0.00      -1.80    4.40   -0.70
#  31    1.80   -2.40    0.94   -1.94   -0.21    0.00    0.00      -1.82   -3.84   -0.42
#  32    1.15   -2.36    0.82   -1.23   -0.21    0.00    0.00      -1.83   -2.71   -0.46
#  33   -2.06   -1.34    0.17    0.62   -0.12    0.00    0.00      -2.74    1.57   -0.31
#  34    4.20   -1.10    0.12   -2.48    0.20    0.00    0.00       0.94   -5.90    0.47
#  35   -0.80   -1.26    0.10    0.58   -0.08    0.00    0.00      -1.45    1.50   -0.20
#  36    1.69   -1.62    0.25   -1.43   -0.21    0.00    0.00      -1.32   -2.92   -0.42
#  37    0.97   -1.74    0.51   -1.03   -0.21    0.00    0.00      -1.50   -2.33   -0.47
#  38    0.66   -1.47    0.20   -1.16   -0.20    0.00    0.00      -1.97   -2.78   -0.47
#  39    0.32   -1.68    0.37   -0.82   -0.17    0.00    0.00      -1.98   -2.30   -0.47
#  40    0.76   -1.36    0.25   -0.84   -0.15    0.00    0.00      -1.34   -2.50   -0.46
#  41    3.73   -1.29    0.16   -1.52   -0.16    0.00    0.00       0.92   -4.09   -0.42
#  42    2.26   -1.19    0.09   -1.26   -0.18    0.00    0.00      -0.27   -3.22   -0.46
#  43    8.39   -2.03    0.56   -4.30   -0.20    0.00    0.00       2.42   -9.93   -0.47
#  44   -7.38   -1.38    0.12    6.26   -0.42    0.00    0.00      -2.79   14.33   -0.97
#  45    8.38   -1.36    0.28   -6.62    0.37    0.00    0.00       1.04  -18.26    1.01
#  46   -5.39   -0.03    0.00    4.65    0.16    0.00    0.00      -0.62   17.55    0.59
#  47   -6.75   -0.01    0.00    1.32    0.04    0.00    0.00      -5.40   15.62    0.44
#  48   -0.79   -0.21    0.10    0.33   -0.03    0.00    0.00      -0.60    2.45   -0.21
#  49   -0.49   -0.04    0.00    0.10   -0.01    0.00    0.00      -0.44    2.70   -0.28
#  50   -1.37   -0.11    0.01    0.88   -0.03    0.00    0.00      -0.61    8.96   -0.28
#  51   -0.58   -0.05    0.00    0.40   -0.01    0.00    0.00      -0.24    7.88   -0.28
#  52   -0.14   -0.01    0.00    0.14   -0.01    0.00    0.00      -0.02    6.52   -0.28
#  53   -0.31   -0.02    0.00    0.11    0.00    0.00    0.00      -0.22    5.20   -0.22
#  54   -0.11   -0.01    0.00    0.03   -0.01    0.00    0.00      -0.10    1.72   -0.28
#  55   -0.17   -0.02    0.00    0.07   -0.01    0.00    0.00      -0.12    3.15   -0.25
#  56   -0.16   -0.04    0.00    0.18   -0.01    0.00    0.00      -0.03    3.67   -0.27
#  57   -0.38   -0.24    0.14    0.36   -0.04    0.00    0.00      -0.17    2.42   -0.28
#  58   -0.46   -0.08    0.01    0.29   -0.02    0.00    0.00      -0.27    3.47   -0.25
#  59   -1.29   -0.05    0.00    0.37   -0.01    0.00    0.00      -0.98    8.20   -0.28
#  60   -0.29   -0.03    0.00    0.21   -0.01    0.00    0.00      -0.11    6.79   -0.28
#  61   -0.29   -0.07    0.01    0.42   -0.02    0.00    0.00       0.05    5.48   -0.25
#  62   -0.29   -0.11    0.01    0.19   -0.03    0.00    0.00      -0.22    1.98   -0.28
#  63   -0.26   -0.47    0.27    0.46   -0.10    0.00    0.00      -0.09    1.33   -0.28
#  64   -0.22   -0.11    0.01    0.36   -0.03    0.00    0.00       0.01    3.56   -0.28
#  65   -4.14   -0.23    0.07    1.17   -0.03    0.00    0.00      -3.16    7.24   -0.21
#  66   -4.95   -0.47    0.20    1.61   -0.07    0.00    0.00      -3.68    5.64   -0.25
#  67   -0.28   -0.05    0.00    0.08   -0.01    0.00    0.00      -0.26    1.72   -0.28
#  68   -0.03   -0.11    0.02    0.09   -0.02    0.00    0.00      -0.05    0.99   -0.27
#  69   -7.75   -0.01    0.00    1.18    0.03    0.00    0.00      -6.55   13.95    0.39
#  70  -17.28   -0.07    0.01    7.05    0.27    0.00    0.00     -10.03   15.48    0.59
#  71   -1.45   -0.93    0.99    2.69   -0.10    0.00    0.00       1.20    5.50   -0.20
#  72   -0.94   -1.15    1.81    2.15   -0.13    0.00    0.00       1.75    4.76   -0.28
#  73   -2.33   -0.34    0.03    0.88   -0.13    0.00    0.00      -1.88    1.92   -0.28
#  74   -1.52   -0.35    0.08    0.61   -0.09    0.00    0.00      -1.28    1.84   -0.28
#  75   -0.91   -0.26    0.02    0.71   -0.09    0.00    0.00      -0.54    2.20   -0.28
#  76    0.05   -0.48    0.20    1.12   -0.08    0.00    0.00       0.82    4.11   -0.28
#  77   -0.67   -0.25    0.07    1.05   -0.05    0.00    0.00       0.14    5.72   -0.28
#  78   -4.76   -0.28    0.03    0.55   -0.06    0.00    0.00      -4.51    2.08   -0.22
#  79   -4.10   -0.24    0.02    1.03   -0.07    0.00    0.00      -3.36    4.11   -0.28
#  80   -6.98   -0.85    0.63    4.36   -0.13    0.00    0.00      -2.96    9.71   -0.28
#  81   -5.61   -0.27    0.01    4.22   -0.08    0.00    0.00      -1.72   14.25   -0.28

@<TRIPOS>MOLECULE
          T526520        15
   81    86     0     0     0



@<TRIPOS>ATOM
      1 O1          5.4160   -10.5017    91.7728 O.2        1          -0.5101
      2 C1          5.6634    -9.3535    91.4548 C.2        1           0.5668
      3 N1          6.9190    -9.0048    91.1128 N.am       1          -0.7297
      4 C2          7.9868   -10.0078    91.1237 C.3        1           0.0941
      5 C3          9.0339    -9.6494    90.0673 C.3        1          -0.0222
      6 N2          8.4021    -9.6212    88.7414 N.4        1          -0.3800
      7 H1          7.4892    -9.1974    88.8139 H          1           0.4261
      8 C4          8.2645   -10.9928    88.2373 C.3        1          -0.0138
      9 C5          7.5338   -10.9753    86.8929 C.3        1          -0.1399
     10 C6          8.3376   -10.1402    85.8921 C.3        1          -0.0558
     11 C7          8.5388    -8.7330    86.4617 C.3        1          -0.1405
     12 C8          9.2330    -8.8350    87.8216 C.3        1          -0.0042
     13 C9          7.5856   -10.0537    84.5890 C.ar       1          -0.0528
     14 C10         6.3192    -9.4917    84.5366 C.ar       1          -0.1733
     15 C11         5.6598    -9.4295    83.3235 C.ar       1           0.1098
     16 N3          6.2212    -9.8973    82.2259 N.ar       1          -0.4753
     17 C12         7.4238   -10.4382    82.2384 C.ar       1           0.1126
     18 C13         8.1459   -10.5291    83.4132 C.ar       1          -0.1646
     19 C14         4.5892    -8.3469    91.4382 C.ar       1          -0.1428
     20 C15         4.8945    -6.9944    91.6318 C.ar       1          -0.0560
     21 C16         3.9005    -6.0615    91.6160 C.ar       1          -0.1837
     22 C17         2.5718    -6.4570    91.4061 C.ar       1           0.1205
     23 C18         2.2667    -7.8117    91.2123 C.ar       1          -0.1034
     24 C19         3.2625    -8.7426    91.2231 C.ar       1          -0.0265
     25 N4          1.5803    -5.5279    91.3907 N.2        1          -0.5053
     26 C20         0.9555    -5.2047    92.5172 C.2        1           0.5578
     27 N5          1.3994    -5.7188    93.7102 N.pl3      1          -0.6220
     28 C21         0.7563    -5.3860    94.8702 C.2        1           0.5572
     29 N6          1.1831    -5.8879    96.0736 N.pl3      1          -0.6597
     30 C22         2.5362    -6.1914    96.2657 C.ar       1           0.1037
     31 C23         2.9035    -7.2142    97.1297 C.ar       1          -0.1336
     32 C24         4.2384    -7.5127    97.3181 C.ar       1          -0.1070
     33 C25         5.2128    -6.7910    96.6439 C.ar       1           0.1224
     34 O2          6.5270    -7.0859    96.8296 O.3        1          -0.2517
     35 C26         6.8952    -8.3939    96.8179 C.ar       1           0.0669
     36 C27         7.7582    -8.8816    97.7888 C.ar       1          -0.1295
     37 C28         8.1309   -10.2117    97.7746 C.ar       1          -0.0981
     38 C29         7.6449   -11.0567    96.7939 C.ar       1          -0.1068
     39 C30         6.7848   -10.5731    95.8253 C.ar       1          -0.1047
     40 C31         6.4043    -9.2453    95.8382 C.ar       1          -0.1229
     41 C32         4.8468    -5.7690    95.7800 C.ar       1          -0.1509
     42 C33         3.5121    -5.4730    95.5863 C.ar       1          -0.0919
     43 C34        -0.3341    -4.5328    94.8089 C.2        1          -0.2924
     44 C35        -0.7412    -4.0416    93.5756 C.2        1           0.3182
     45 N7         -0.0930    -4.3798    92.4763 N.pl3      1          -0.5265
     46 H2         -0.3865    -4.0252    91.6225 H          1           0.4691
     47 H3          7.1160    -8.0895    90.8592 H          1           0.4059
     48 H4          8.4557   -10.0286    92.1075 H          1           0.0947
     49 H5          7.5664   -10.9885    90.9007 H          1           0.0938
     50 H6          9.4542    -8.6688    90.2904 H          1           0.1381
     51 H7          9.8284   -10.3956    90.0753 H          1           0.1386
     52 H8          9.2533   -11.4325    88.1072 H          1           0.1341
     53 H9          7.6949   -11.5866    88.9521 H          1           0.1359
     54 H10         7.4343   -11.9945    86.5195 H          1           0.1184
     55 H11         6.5446   -10.5359    87.0218 H          1           0.0937
     56 H12         9.3079   -10.6074    85.7239 H          1           0.1015
     57 H13         9.1575    -8.1494    85.7800 H          1           0.1183
     58 H14         7.5705    -8.2471    86.5818 H          1           0.0935
     59 H15         9.3792    -7.8348    88.2294 H          1           0.1342
     60 H16        10.2007    -9.3220    87.7006 H          1           0.1331
     61 H17         5.8538    -9.1076    85.4323 H          1           0.1310
     62 H18         4.6731    -8.9933    83.2742 H          1           0.1605
     63 H19         7.8511   -10.8108    81.3191 H          1           0.1629
     64 H20         9.1324   -10.9687    83.4162 H          1           0.1380
     65 H21         5.9179    -6.6899    91.7940 H          1           0.1331
     66 H22         4.1363    -5.0182    91.7657 H          1           0.1297
     67 H23         1.2435    -8.1172    91.0505 H          1           0.1491
     68 H24         3.0283    -9.7856    91.0698 H          1           0.1535
     69 H25         2.1646    -6.3147    93.7303 H          1           0.4491
     70 H26         0.5473    -6.0326    96.7916 H          1           0.4482
     71 H27         2.1451    -7.7756    97.6549 H          1           0.1217
     72 H28         4.5239    -8.3080    97.9907 H          1           0.1457
     73 H29         8.1384    -8.2219    98.5547 H          1           0.1329
     74 H30         8.8029   -10.5918    98.5298 H          1           0.1375
     75 H31         7.9379   -12.0961    96.7844 H          1           0.1356
     76 H32         6.4066   -11.2353    95.0604 H          1           0.1338
     77 H33         5.7290    -8.8691    95.0840 H          1           0.1258
     78 H34         5.6059    -5.2076    95.2554 H          1           0.1455
     79 H35         3.2272    -4.6803    94.9103 H          1           0.1440
     80 H36        -0.8611    -4.2536    95.7094 H          1           0.2082
     81 H37        -1.5898    -3.3762    93.5155 H          1           0.2333
@<TRIPOS>BOND
     1    1    2 2
     2    2    3 am
     3    2   19 1
     4    3    4 1
     5    3   47 1
     6    4    5 1
     7    4   48 1
     8    4   49 1
     9    5    6 1
    10    5   50 1
    11    5   51 1
    12    6    7 1
    13    6   12 1
    14    6    8 1
    15    8    9 1
    16    8   52 1
    17    8   53 1
    18    9   10 1
    19    9   54 1
    20    9   55 1
    21   10   11 1
    22   10   13 1
    23   10   56 1
    24   11   12 1
    25   11   57 1
    26   11   58 1
    27   12   59 1
    28   12   60 1
    29   13   18 ar
    30   13   14 ar
    31   14   15 ar
    32   14   61 1
    33   15   16 ar
    34   15   62 1
    35   16   17 ar
    36   17   18 ar
    37   17   63 1
    38   18   64 1
    39   19   24 ar
    40   19   20 ar
    41   20   21 ar
    42   20   65 1
    43   21   22 ar
    44   21   66 1
    45   22   23 ar
    46   22   25 1
    47   23   24 ar
    48   23   67 1
    49   24   68 1
    50   25   26 2
    51   26   45 1
    52   26   27 1
    53   27   28 1
    54   27   69 1
    55   28   29 1
    56   28   43 2
    57   29   30 1
    58   29   70 1
    59   30   42 ar
    60   30   31 ar
    61   31   32 ar
    62   31   71 1
    63   32   33 ar
    64   32   72 1
    65   33   34 1
    66   33   41 ar
    67   34   35 1
    68   35   40 ar
    69   35   36 ar
    70   36   37 ar
    71   36   73 1
    72   37   38 ar
    73   37   74 1
    74   38   39 ar
    75   38   75 1
    76   39   40 ar
    77   39   76 1
    78   40   77 1
    79   41   42 ar
    80   41   78 1
    81   42   79 1
    82   43   44 1
    83   43   80 1
    84   44   45 2
    85   44   81 1
    86   45   46 1
##########                 Name:              T536689
##########          Protonation:                   91
##########               SMILES:   Cc1cc(=[NH2+])[nH]c2c1cc(cc2)C[NH2+]CCc3ccccc3Br
##########            Long Name:   iumylidene-4-methyl-1H-quinolin-6-yl)methyl-[2-(2-bromophenyl)ethyl]ammonium
##########          FlexRecCode: 1
##########               Number:                  160
##########   Ligand Source File: /raidb/db2/rgc/tcams/tcams-0001508.db2.gz
##########           GlobalRank: 103
##########                 Rank:                    1
##########               Setnum:                   28
##########             Matchnum:                 2475
##########                Cloud:                    1
##########        Electrostatic:           -55.044769
##########        Van der Waals:           -24.779739
##########  Ligand Polar Desolv:            14.980596
########## Ligand Apolar Desolv:            -3.195556
##########      Internal Energy:             0.000000
##########      Receptor Energy: 0.0
########## Receptor Desolvation:             0.000000
########## Receptor Hydrophobic:             0.000000
##########         Total Energy: -68.04
##########        Ligand Charge:             2.000000
##########            Arbitrary:    +999.9990
##########     heavy atom count:   23
##########           pose count:    1
##########        Ligand Energy:             0.000000
# num electro vdwattr vdwrepu polsolv apolsol rdesolv rhydroe totalscore fullpol fullapo
#   1    0.54   -0.77    0.14   -1.34   -0.06    0.00    0.00      -1.48   -4.84   -0.20
#   2   -0.73   -0.90    0.10    0.50   -0.11    0.00    0.00      -1.14    1.88   -0.42
#   3    3.57   -1.34    0.35   -2.64   -0.15    0.00    0.00      -0.20   -8.22   -0.46
#   4  -11.99   -0.88    0.07    6.31   -0.67    0.00    0.00      -7.17   19.68   -2.10
#   5   19.75   -1.84    0.55   -9.80    0.33    0.00    0.00       8.99  -25.29    0.85
#   6  -17.72   -0.07    0.01    6.67    0.23    0.00    0.00     -10.88   17.24    0.59
#   7  -10.53   -0.02    0.00    4.22    0.15    0.00    0.00      -6.18   16.79    0.60
#   8   10.58   -0.51    0.02   -4.39    0.21    0.00    0.00       5.91  -21.81    1.04
#   9   -4.18   -0.68    0.06    1.19   -0.15    0.00    0.00      -3.75    5.60   -0.69
#  10    2.24   -0.81    0.08   -1.23   -0.09    0.00    0.00       0.20   -5.43   -0.40
#  11    0.45   -1.06    0.18   -0.33   -0.11    0.00    0.00      -0.87   -1.30   -0.42
#  12    4.63   -1.19    0.35   -1.28   -0.09    0.00    0.00       2.43   -5.24   -0.37
#  13   -1.01   -0.60    0.09    0.59   -0.10    0.00    0.00      -1.03    2.47   -0.42
#  14   19.06   -1.64    1.17   -6.33    0.21    0.00    0.00      12.47  -22.10    0.73
#  15  -14.99   -0.02    0.00    3.57    0.09    0.00    0.00     -11.35   21.70    0.57
#  16  -25.27   -0.13    0.03    8.01    0.20    0.00    0.00     -17.16   22.72    0.57
#  17    0.27   -0.61    0.05    0.25   -0.11    0.00    0.00      -0.16    0.86   -0.40
#  18    3.36   -0.91    0.08   -1.79   -0.09    0.00    0.00       0.66   -4.37   -0.21
#  19    2.26   -1.23    0.12   -0.36   -0.13    0.00    0.00       0.66   -0.95   -0.36
#  20    3.37   -1.75    0.37   -1.16   -0.21    0.00    0.00       0.62   -2.54   -0.45
#  21    2.36   -1.80    0.40   -1.22   -0.21    0.00    0.00      -0.48   -2.75   -0.47
#  22    1.58   -1.39    0.21   -1.20   -0.20    0.00    0.00      -0.99   -2.85   -0.47
#  23    1.11   -1.49    0.18   -1.06   -0.19    0.00    0.00      -1.45   -2.56   -0.46
#  24    1.56   -1.22    0.10   -0.94   -0.11    0.00    0.00      -0.61   -2.49   -0.30
#  25    0.81   -4.26    1.04   -0.37   -0.49    0.00    0.00      -3.26   -0.77   -1.02
#  26    0.90   -1.30    0.51   -0.34   -0.11    0.00    0.00      -0.34   -1.37   -0.44
#  27    3.13   -0.97    0.16   -1.56   -0.11    0.00    0.00       0.64   -6.25   -0.46
#  28   -0.43   -0.24    0.03    0.54   -0.06    0.00    0.00      -0.17    2.39   -0.28
#  29   -0.30   -0.10    0.00    0.23   -0.03    0.00    0.00      -0.19    2.38   -0.28
#  30   -0.32   -0.75    0.90    1.12   -0.06    0.00    0.00       0.89    4.28   -0.23
#  31   -3.21   -0.90    1.54    1.86   -0.08    0.00    0.00      -0.78    6.66   -0.28
#  32   -5.30    0.00    0.00    0.96    0.04    0.00    0.00      -4.31   16.25    0.60
#  33   -1.26   -0.22    0.03    1.58   -0.04    0.00    0.00       0.09    7.87   -0.21
#  34   -3.12   -0.22    0.03    1.73   -0.06    0.00    0.00      -1.63    8.08   -0.28
#  35   -2.16   -0.07    0.00    0.47   -0.02    0.00    0.00      -1.78    7.45   -0.28
#  36   -3.43   -0.25    0.04    1.63   -0.06    0.00    0.00      -2.06    7.25   -0.28
#  37   -2.47   -0.09    0.00    0.41   -0.02    0.00    0.00      -2.18    4.63   -0.26
#  38   -3.90   -0.45    0.07    1.63   -0.11    0.00    0.00      -2.76    3.71   -0.24
#  39   -2.81   -0.30    0.03    1.72   -0.08    0.00    0.00      -1.43    6.26   -0.28
#  40   -6.57   -0.77    1.06    2.58   -0.12    0.00    0.00      -3.82    5.96   -0.28
#  41   -3.78   -0.66    0.33    1.13   -0.13    0.00    0.00      -3.10    2.41   -0.28
#  42   -2.19   -0.25    0.02    0.35   -0.07    0.00    0.00      -2.15    1.33   -0.28
#  43   -1.18   -0.57    0.26    0.55   -0.11    0.00    0.00      -1.05    1.40   -0.28
#  44   -4.54   -0.22    0.05    1.49   -0.05    0.00    0.00      -3.28    7.80   -0.28
#  45   -3.19   -0.22    0.04    1.01   -0.06    0.00    0.00      -2.41    5.00   -0.28

@<TRIPOS>MOLECULE
          T536689        91
   45    47     0     0     0



@<TRIPOS>ATOM
      1 C1          5.3160    -5.5906    86.1874 C.3        1          -0.1448
      2 C2          6.6143    -5.8131    86.9198 C.2        1           0.0829
      3 C3          7.8002    -5.7041    86.2720 C.2        1          -0.2239
      4 C4          9.0347    -5.9296    87.0396 C.cat      1           0.5661
      5 N1         10.1734    -5.3943    86.6686 N.pl3      1          -0.7105
      6 H1         10.2121    -4.8380    85.8749 H          1           0.4561
      7 H2         10.9768    -5.5548    87.1880 H          1           0.4379
      8 N2          8.9503    -6.7285    88.1700 N.pl3      1          -0.6288
      9 C5          7.8063    -6.6095    88.9475 C.ar       1           0.1986
     10 C6          6.6189    -6.1460    88.3488 C.ar       1          -0.1212
     11 C7          5.4608    -6.0143    89.1204 C.ar       1          -0.0228
     12 C8          5.4939    -6.3347    90.4595 C.ar       1          -0.1663
     13 C9          4.2463    -6.1937    91.2927 C.3        1           0.0408
     14 N3          4.5787    -5.5397    92.5654 N.4        1          -0.5091
     15 H3          5.2549    -6.0983    93.0641 H          1           0.4278
     16 H4          4.9662    -4.6262    92.3829 H          1           0.4292
     17 C10         3.3625    -5.4023    93.3778 C.3        1          -0.0102
     18 C11         3.7089    -4.7212    94.7033 C.3        1          -0.1098
     19 C12         4.7190    -5.5556    95.4480 C.ar       1          -0.0838
     20 C13         6.0708    -5.3393    95.2557 C.ar       1          -0.1020
     21 C14         6.9973    -6.1043    95.9390 C.ar       1          -0.0949
     22 C15         6.5727    -7.0860    96.8149 C.ar       1          -0.0940
     23 C16         5.2215    -7.3030    97.0078 C.ar       1          -0.0828
     24 C17         4.2937    -6.5341    96.3281 C.ar       1          -0.0872
     25 Br1         2.4448    -6.8257    96.5967 Br         1          -0.0460
     26 C18         6.6663    -6.7862    91.0473 C.ar       1          -0.0310
     27 C19         7.8191    -6.9328    90.2962 C.ar       1          -0.1303
     28 H5          5.5235    -5.3559    85.1434 H          1           0.1122
     29 H6          4.7082    -6.4937    86.2428 H          1           0.1022
     30 H7          4.7775    -4.7613    86.6462 H          1           0.0896
     31 H8          7.8375    -5.4586    85.2210 H          1           0.1924
     32 H9          9.6607    -7.3450    88.4074 H          1           0.4488
     33 H10         4.5448    -5.6630    88.6688 H          1           0.1587
     34 H11         3.5158    -5.5903    90.7541 H          1           0.1496
     35 H12         3.8276    -7.1807    91.4901 H          1           0.1474
     36 H13         2.6320    -4.7989    92.8391 H          1           0.1413
     37 H14         2.9439    -6.3893    93.5750 H          1           0.1363
     38 H15         4.1276    -3.7342    94.5060 H          1           0.1025
     39 H16         2.8065    -4.6192    95.3061 H          1           0.1038
     40 H17         6.4029    -4.5728    94.5713 H          1           0.1355
     41 H18         8.0533    -5.9352    95.7883 H          1           0.1397
     42 H19         7.2969    -7.6837    97.3484 H          1           0.1426
     43 H20         4.8899    -8.0699    97.6921 H          1           0.1419
     44 H21         6.6774    -7.0338    92.0985 H          1           0.1569
     45 H22         8.7285    -7.2849    90.7604 H          1           0.1585
@<TRIPOS>BOND
     1    1    2 1
     2    1   28 1
     3    1   29 1
     4    1   30 1
     5    2   10 1
     6    2    3 2
     7    3    4 1
     8    3   31 1
     9    4    5 2
    10    4    8 1
    11    5    6 1
    12    5    7 1
    13    8    9 1
    14    8   32 1
    15    9   27 ar
    16    9   10 ar
    17   10   11 ar
    18   11   12 ar
    19   11   33 1
    20   12   13 1
    21   12   26 ar
    22   13   14 1
    23   13   34 1
    24   13   35 1
    25   14   15 1
    26   14   16 1
    27   14   17 1
    28   17   18 1
    29   17   36 1
    30   17   37 1
    31   18   19 1
    32   18   38 1
    33   18   39 1
    34   19   24 ar
    35   19   20 ar
    36   20   21 ar
    37   20   40 1
    38   21   22 ar
    39   21   41 1
    40   22   23 ar
    41   22   42 1
    42   23   24 ar
    43   23   43 1
    44   24   25 1
    45   26   27 ar
    46   26   44 1
    47   27   45 1
##########                 Name:              T539941
##########          Protonation:                   94
##########               SMILES:   c1cc(c(cc1/C=C\C(=O)NCCCCC[NH+]2CCCN(CC2)C(=O)Nc3cc(cc(c3)F)F)Cl)Cl
##########            Long Name:   -enoyl]amino]pentyl]-N-(3,5-difluorophenyl)-1,4-diazepan-4-ium-1-carboxamide
##########          FlexRecCode: 1
##########               Number:                  151
##########   Ligand Source File: /raidb/db2/rgc/tcams/tcams-0001951.db2.gz
##########           GlobalRank: 103
##########                 Rank:                    1
##########               Setnum:                  231
##########             Matchnum:                 1632
##########                Cloud:                    1
##########        Electrostatic:           -56.200016
##########        Van der Waals:           -18.633307
##########  Ligand Polar Desolv:            10.724665
########## Ligand Apolar Desolv:            -3.934366
##########      Internal Energy:             0.000000
##########      Receptor Energy: 0.0
########## Receptor Desolvation:             0.000000
########## Receptor Hydrophobic:             0.000000
##########         Total Energy: -68.04
##########        Ligand Charge:             1.000000
##########            Arbitrary:    +999.9990
##########     heavy atom count:   36
##########           pose count:    1
##########        Ligand Energy:             0.000000
# num electro vdwattr vdwrepu polsolv apolsol rdesolv rhydroe totalscore fullpol fullapo
#   1    1.06   -1.60    1.06   -0.47   -0.28    0.00    0.00      -0.24   -0.80   -0.48
#   2   -1.52   -1.91    0.60    0.42   -0.18    0.00    0.00      -2.58    0.80   -0.34
#   3    2.44   -1.95    0.67   -0.88   -0.22    0.00    0.00       0.06   -1.84   -0.46
#   4   -2.17   -1.50    0.22    1.11   -0.27    0.00    0.00      -2.61    2.75   -0.67
#   5    9.50   -1.36    0.10   -4.88    0.75    0.00    0.00       4.11  -10.90    1.67
#   6   -9.06   -1.29    0.12    4.47   -0.81    0.00    0.00      -6.57   11.21   -2.03
#   7    4.10   -2.31    0.76   -3.03    0.14    0.00    0.00      -0.35   -6.79    0.32
#   8   12.46   -0.96    0.05   -4.87    0.51    0.00    0.00       7.19  -13.83    1.44
#   9   -1.92   -0.54    0.02    0.61   -0.14    0.00    0.00      -1.97    2.01   -0.46
#  10    1.90   -0.49    0.06   -0.92   -0.05    0.00    0.00       0.50   -4.44   -0.24
#  11    0.15   -0.39    0.03   -0.07   -0.07    0.00    0.00      -0.35   -0.34   -0.36
#  12   11.53   -1.11    0.59   -2.89    0.05    0.00    0.00       8.17  -11.31    0.18
#  13  -16.82   -0.03    0.00    3.33    0.09    0.00    0.00     -13.43   16.93    0.44
#  14    0.69   -1.10    0.73   -0.02   -0.09    0.00    0.00       0.21   -0.08   -0.35
#  15    4.68   -1.12    0.50   -1.10   -0.06    0.00    0.00       2.90   -4.00   -0.20
#  16    2.58   -0.80    0.16   -0.78   -0.06    0.00    0.00       1.10   -2.89   -0.22
#  17    0.65   -1.42    0.76   -0.72   -0.07    0.00    0.00      -0.81   -2.30   -0.22
#  18   -0.44   -1.50    1.10    0.43   -0.13    0.00    0.00      -0.54    1.44   -0.42
#  19    5.30   -4.12    7.68   -3.48    0.88    0.00    0.00       6.27   -9.22    2.33
#  20   -5.72   -1.85    0.54    1.75   -0.23    0.00    0.00      -5.51    4.50   -0.58
#  21    2.54   -2.77    2.40   -0.73    0.09    0.00    0.00       1.54   -2.23    0.29
#  22    6.43   -2.57    1.13   -1.04   -0.21    0.00    0.00       3.75   -2.24   -0.45
#  23    0.42   -2.69    1.43   -0.24   -0.20    0.00    0.00      -1.27   -0.52   -0.44
#  24    1.43   -1.06    0.10   -0.11   -0.11    0.00    0.00       0.26   -0.31   -0.31
#  25    0.55   -0.95    0.11   -0.04   -0.09    0.00    0.00      -0.43   -0.13   -0.29
#  26    0.56   -0.51    0.02   -0.03   -0.06    0.00    0.00       0.00   -0.15   -0.30
#  27    0.82   -2.89    1.67   -0.04   -0.26    0.00    0.00      -0.70   -0.13   -0.95
#  28    0.15   -0.25    0.00   -0.02   -0.03    0.00    0.00      -0.14   -0.16   -0.30
#  29    0.20   -0.30    0.01   -0.01   -0.06    0.00    0.00      -0.16   -0.10   -0.95
#  30    0.52   -0.48    0.06   -0.07   -0.07    0.00    0.00      -0.04   -0.48   -0.46
#  31    1.15   -1.32    0.54   -0.15   -0.12    0.00    0.00       0.11   -0.57   -0.45
#  32    1.41   -1.32    0.63   -0.13   -0.12    0.00    0.00       0.47   -0.40   -0.39
#  33   -3.31   -1.09    0.21    0.96   -0.17    0.00    0.00      -3.40    2.33   -0.42
#  34    0.91   -1.47    0.20   -0.49   -0.14    0.00    0.00      -0.99   -1.35   -0.40
#  35   -0.74   -1.53    0.20    0.18   -0.14    0.00    0.00      -2.04    0.43   -0.34
#  36    0.46   -1.22    0.35   -0.20   -0.20    0.00    0.00      -0.81   -0.48   -0.48
#  37    1.48   -1.54    0.17   -0.68   -0.25    0.00    0.00      -0.81   -1.27   -0.46
#  38   -2.71   -0.41    0.07    1.35   -0.13    0.00    0.00      -1.83    3.03   -0.28
#  39   -6.95   -0.02    0.00    3.38    0.15    0.00    0.00      -3.45    9.44    0.41
#  40   -1.72   -0.18    0.01    0.49   -0.04    0.00    0.00      -1.45    2.46   -0.20
#  41   -2.79   -0.18    0.01    0.38   -0.05    0.00    0.00      -2.63    2.21   -0.28
#  42    0.27   -0.43    0.45    0.81   -0.05    0.00    0.00       1.04    4.48   -0.28
#  43   -1.46   -0.09    0.00    0.39   -0.02    0.00    0.00      -1.18    4.86   -0.25
#  44   -1.11   -0.14    0.02    0.38   -0.03    0.00    0.00      -0.89    2.99   -0.24
#  45   -1.58   -0.08    0.00    0.51   -0.02    0.00    0.00      -1.16    6.08   -0.23
#  46   -5.87   -0.88    1.70    1.40   -0.08    0.00    0.00      -3.72    4.72   -0.26
#  47   -2.69   -0.10    0.00    0.38   -0.03    0.00    0.00      -2.43    3.92   -0.27
#  48   -1.71   -0.11    0.01    0.44   -0.03    0.00    0.00      -1.40    3.81   -0.23
#  49   -4.42   -1.15    1.95    1.31   -0.10    0.00    0.00      -2.41    3.84   -0.28
#  50   -2.66   -0.41    0.13    0.34   -0.08    0.00    0.00      -2.68    1.25   -0.28
#  51   -1.09   -0.07    0.00    0.09   -0.02    0.00    0.00      -1.09    1.20   -0.28
#  52   -0.21   -0.18    0.02    0.38   -0.05    0.00    0.00      -0.04    2.09   -0.28
#  53   -1.76   -1.34    2.73    0.89   -0.12    0.00    0.00       0.40    2.05   -0.28
#  54   -0.23   -0.12    0.01    0.02   -0.03    0.00    0.00      -0.35    0.20   -0.28
#  55   -0.14   -1.27    4.07    0.06   -0.08    0.00    0.00       2.63    0.20   -0.28
#  56  -17.12   -0.36    0.40    2.94    0.22    0.00    0.00     -13.92    7.50    0.56
#  57   -3.65   -0.53    0.15    1.55   -0.13    0.00    0.00      -2.61    3.45   -0.28
#  58   -6.80   -1.50    3.08    1.32   -0.13    0.00    0.00      -4.03    2.81   -0.28
#  59   -3.77   -0.44    0.25    0.19   -0.08    0.00    0.00      -3.86    0.60   -0.25
#  60   -0.34   -0.09    0.01    0.08   -0.02    0.00    0.00      -0.37    0.91   -0.28
#  61   -3.00   -1.33    4.26    0.58   -0.09    0.00    0.00       0.42    1.87   -0.28
#  62   -2.53   -0.30    0.09    0.51   -0.06    0.00    0.00      -2.28    2.50   -0.28
#  63   -5.40   -1.07    2.20    2.20   -0.10    0.00    0.00      -2.17    5.95   -0.26
#  64   -4.00   -0.43    0.12    2.18   -0.12    0.00    0.00      -2.24    5.08   -0.28
#  65   -3.35   -0.49    0.18    0.43   -0.09    0.00    0.00      -3.33    1.10   -0.24
#  66   -0.50   -0.30    0.07    0.26   -0.05    0.00    0.00      -0.52    1.10   -0.21
#  67   -1.27   -0.33    0.03    0.32   -0.13    0.00    0.00      -1.39    0.67   -0.28

@<TRIPOS>MOLECULE
          T539941        94
   67    69     0     0     0



@<TRIPOS>ATOM
      1 F1          9.6102   -11.4117    99.2178 F          1          -0.1208
      2 C1          8.7479   -10.9872    98.2684 C.ar       1           0.1593
      3 C2          8.3152    -9.6731    98.2652 C.ar       1          -0.1919
      4 C3          7.4295    -9.2372    97.2890 C.ar       1           0.2082
      5 N1          6.9910    -7.9083    97.2838 N.am       1          -0.6761
      6 C4          5.7687    -7.6039    96.8045 C.2        1           0.7030
      7 O1          4.7774    -8.0890    97.3148 O.2        1          -0.5463
      8 N2          5.6450    -6.7618    95.7595 N.am       1          -0.6352
      9 C5          4.3552    -6.4218    95.2400 C.3        1           0.0943
     10 C6          3.7619    -7.3300    94.1248 C.3        1          -0.1570
     11 C7          4.9034    -7.7187    93.1451 C.3        1          -0.0105
     12 N3          5.8047    -6.6236    92.9381 N.4        1          -0.3664
     13 H1          5.3358    -5.7598    93.1663 H          1           0.4172
     14 C8          6.2119    -6.5927    91.5269 C.3        1          -0.0209
     15 C9          5.1111    -5.9344    90.6927 C.3        1          -0.1460
     16 C10         5.5353    -5.9022    89.2231 C.3        1          -0.1156
     17 C11         4.4345    -5.2437    88.3890 C.3        1          -0.1319
     18 C12         4.8586    -5.2116    86.9193 C.3        1           0.1182
     19 N4          6.0986    -4.4428    86.7856 N.am       1          -0.7308
     20 C13         6.9745    -4.7419    85.8058 C.2        1           0.5380
     21 O2          6.7354    -5.6505    85.0322 O.2        1          -0.5205
     22 C14         8.2136    -3.9739    85.6722 C.2        1          -0.2159
     23 C15         9.3258    -4.3700    86.3238 C.2        1          -0.0117
     24 C16         9.3823    -5.7061    86.9379 C.ar       1          -0.0606
     25 C17         9.5895    -5.8383    88.3149 C.ar       1          -0.0242
     26 C18         9.6408    -7.0938    88.8836 C.ar       1          -0.0388
     27 Cl1         9.8973    -7.2610    90.5923 Cl         1          -0.0531
     28 C19         9.4873    -8.2229    88.0931 C.ar       1          -0.0200
     29 Cl2         9.5531    -9.7996    88.8165 Cl         1          -0.0474
     30 C20         9.2814    -8.0985    86.7292 C.ar       1          -0.1072
     31 C21         9.2232    -6.8495    86.1483 C.ar       1          -0.0811
     32 C22         6.9950    -6.7651    93.7845 C.3        1          -0.0473
     33 C23         6.8562    -6.1522    95.1153 C.3        1           0.1144
     34 C24         6.9796   -10.1214    96.3176 C.ar       1          -0.1712
     35 C25         7.4146   -11.4347    96.3243 C.ar       1           0.1564
     36 F2          6.9775   -12.2954    95.3791 F          1          -0.1216
     37 C26         8.3021   -11.8662    97.2957 C.ar       1          -0.2010
     38 H2          8.6660    -8.9870    99.0218 H          1           0.1475
     39 H3          7.5667    -7.2063    97.6251 H          1           0.4121
     40 H4          3.6519    -6.4138    96.0727 H          1           0.0927
     41 H5          4.4103    -5.4061    94.8488 H          1           0.0957
     42 H6          3.3403    -8.2305    94.5715 H          1           0.1285
     43 H7          2.9853    -6.7877    93.5854 H          1           0.0949
     44 H8          5.4557    -8.5632    93.5573 H          1           0.1287
     45 H9          4.4693    -8.0099    92.1885 H          1           0.1387
     46 H10         7.1344    -6.0208    91.4274 H          1           0.1347
     47 H11         6.3757    -7.6108    91.1737 H          1           0.1317
     48 H12         4.1886    -6.5063    90.7923 H          1           0.0871
     49 H13         4.9474    -4.9162    91.0461 H          1           0.0894
     50 H14         6.4578    -5.3301    89.1236 H          1           0.0797
     51 H15         5.6991    -6.9202    88.8698 H          1           0.0787
     52 H16         3.5120    -5.8157    88.4884 H          1           0.0738
     53 H17         4.2708    -4.2258    88.7422 H          1           0.0745
     54 H18         5.0224    -6.2297    86.5660 H          1           0.0696
     55 H19         4.0745    -4.7425    86.3249 H          1           0.0697
     56 H20         6.2891    -3.7187    87.4020 H          1           0.4012
     57 H21         8.2369    -3.0902    85.0520 H          1           0.1386
     58 H22        10.1752    -3.7068    86.3946 H          1           0.1472
     59 H23         9.7094    -4.9595    88.9312 H          1           0.1301
     60 H24         9.1624    -8.9819    86.1196 H          1           0.1444
     61 H25         9.0585    -6.7541    85.0852 H          1           0.1400
     62 H26         7.2085    -7.8266    93.9094 H          1           0.1318
     63 H27         7.8402    -6.3011    93.2759 H          1           0.1471
     64 H28         6.7209    -5.0751    95.0169 H          1           0.1035
     65 H29         7.7407    -6.3619    95.7169 H          1           0.1345
     66 H30         6.2903    -9.7844    95.5577 H          1           0.1601
     67 H31         8.6443   -12.8906    97.2968 H          1           0.1557
@<TRIPOS>BOND
     1    1    2 1
     2    2   37 ar
     3    2    3 ar
     4    3    4 ar
     5    3   38 1
     6    4    5 1
     7    4   34 ar
     8    5    6 am
     9    5   39 1
    10    6    7 2
    11    6    8 am
    12    8   33 1
    13    8    9 1
    14    9   10 1
    15    9   40 1
    16    9   41 1
    17   10   11 1
    18   10   42 1
    19   10   43 1
    20   11   12 1
    21   11   44 1
    22   11   45 1
    23   12   13 1
    24   12   14 1
    25   12   32 1
    26   14   15 1
    27   14   46 1
    28   14   47 1
    29   15   16 1
    30   15   48 1
    31   15   49 1
    32   16   17 1
    33   16   50 1
    34   16   51 1
    35   17   18 1
    36   17   52 1
    37   17   53 1
    38   18   19 1
    39   18   54 1
    40   18   55 1
    41   19   20 am
    42   19   56 1
    43   20   21 2
    44   20   22 1
    45   22   23 2
    46   22   57 1
    47   23   24 1
    48   23   58 1
    49   24   31 ar
    50   24   25 ar
    51   25   26 ar
    52   25   59 1
    53   26   27 1
    54   26   28 ar
    55   28   29 1
    56   28   30 ar
    57   30   31 ar
    58   30   60 1
    59   31   61 1
    60   32   33 1
    61   32   62 1
    62   32   63 1
    63   33   64 1
    64   33   65 1
    65   34   35 ar
    66   34   66 1
    67   35   36 1
    68   35   37 ar
    69   37   67 1
##########                 Name:              T533103
##########          Protonation:                   32
##########               SMILES:   c1ccc(cc1)NC(=O)CCNc2cc[nH+]c(n2)NCC3CCCCC3
##########            Long Name:   -[[2-(cyclohexylmethylamino)pyrimidin-1-ium-4-yl]amino]-N-phenyl-propanamide
##########          FlexRecCode: 1
##########               Number:                  178
##########   Ligand Source File: /raidb/db2/rgc/tcams/tcams-0001052.db2.gz
##########           GlobalRank: 104
##########                 Rank:                    1
##########               Setnum:                  312
##########             Matchnum:                 2608
##########                Cloud:                    1
##########        Electrostatic:           -31.179283
##########        Van der Waals:           -41.391197
##########  Ligand Polar Desolv:             9.077242
########## Ligand Apolar Desolv:            -4.523041
##########      Internal Energy:             0.000000
##########      Receptor Energy: 0.0
########## Receptor Desolvation:             0.000000
########## Receptor Hydrophobic:             0.000000
##########         Total Energy: -68.02
##########        Ligand Charge:             1.000000
##########            Arbitrary:    +999.9990
##########     heavy atom count:   26
##########           pose count:    1
##########        Ligand Energy:             0.000000
# num electro vdwattr vdwrepu polsolv apolsol rdesolv rhydroe totalscore fullpol fullapo
#   1   12.36   -2.26    0.73   -1.97    0.13    0.00    0.00       9.00   -4.52    0.31
#   2  -14.27   -2.59    1.56    2.81   -0.29    0.00    0.00     -12.79    6.12   -0.64
#   3    4.72   -1.46    0.46   -1.13   -0.11    0.00    0.00       2.48   -2.43   -0.24
#   4   -2.96   -0.92    0.09    1.06   -0.13    0.00    0.00      -2.86    2.54   -0.32
#   5   13.47   -1.50    0.16   -6.00    0.78    0.00    0.00       6.91  -13.23    1.72
#   6   -9.95   -1.39    0.18    3.82   -0.82    0.00    0.00      -8.17    9.76   -2.10
#   7    7.39   -1.31    0.17   -2.83   -0.17    0.00    0.00       3.23   -7.16   -0.44
#   8   -6.10   -1.62    0.26    3.01   -0.42    0.00    0.00      -4.86    6.95   -0.97
#   9   11.80   -1.69    0.30   -6.01    0.41    0.00    0.00       4.82  -14.38    0.98
#  10   -9.19   -0.05    0.00    5.00    0.17    0.00    0.00      -4.07   13.81    0.47
#  11   -9.84   -1.43    0.18    6.36   -2.12    0.00    0.00      -6.84   14.38   -4.79
#  12    9.17   -1.76    0.25   -7.64    0.84    0.00    0.00       0.85  -15.06    1.65
#  13   -1.33   -1.13    0.19    1.16   -0.16    0.00    0.00      -1.28    2.38   -0.33
#  14    0.94   -0.96    0.14   -0.69   -0.07    0.00    0.00      -0.63   -1.56   -0.15
#  15    1.24   -1.12    0.18   -0.90   -0.11    0.00    0.00      -0.71   -1.76   -0.22
#  16    0.86   -1.56    0.34   -0.88   -0.15    0.00    0.00      -1.39   -1.50   -0.25
#  17    1.32   -1.21    0.18   -0.66   -0.13    0.00    0.00      -0.49   -1.30   -0.25
#  18    0.80   -1.10    0.18   -0.71   -0.12    0.00    0.00      -0.94   -1.51   -0.25
#  19    0.76   -0.78    0.06   -0.64   -0.08    0.00    0.00      -0.69   -1.74   -0.22
#  20    7.99   -1.68    0.23   -5.38    0.91    0.00    0.00       2.06  -12.28    2.07
#  21   19.91   -3.44    1.79   -3.76    0.82    0.00    0.00      15.32   -7.59    1.65
#  22   -3.17   -2.41    0.60    0.50   -0.38    0.00    0.00      -4.86    0.90   -0.68
#  23    2.89   -3.28    0.95   -0.51   -0.26    0.00    0.00      -0.21   -0.78   -0.40
#  24    2.44   -4.01    2.29   -0.44   -0.33    0.00    0.00      -0.06   -0.63   -0.47
#  25    2.96   -3.19    0.76   -0.58   -0.31    0.00    0.00      -0.37   -0.88   -0.47
#  26    2.33   -2.71    0.60   -0.47   -0.28    0.00    0.00      -0.53   -0.79   -0.47
#  27    3.28   -1.86    0.22   -0.63   -0.24    0.00    0.00       0.76   -1.18   -0.46
#  28   -3.78   -0.71    0.26    1.68   -0.15    0.00    0.00      -2.69    3.13   -0.28
#  29   -3.71   -0.47    0.34    1.00   -0.09    0.00    0.00      -2.93    3.21   -0.28
#  30   -2.31   -0.14    0.00    0.20   -0.03    0.00    0.00      -2.28    1.57   -0.27
#  31   -2.77   -0.55    0.19    0.53   -0.10    0.00    0.00      -2.70    1.49   -0.27
#  32   -7.63   -0.03    0.00    3.33    0.23    0.00    0.00      -4.11    8.57    0.58
#  33   -6.31   -0.25    0.02    1.14   -0.06    0.00    0.00      -5.46    4.36   -0.24
#  34   -8.54   -0.54    0.24    4.07   -0.12    0.00    0.00      -4.90    9.13   -0.28
#  35   -5.86   -0.05    0.00    3.79    0.22    0.00    0.00      -1.90    8.99    0.52
#  36   -1.31   -0.66    0.51    0.95   -0.08    0.00    0.00      -0.58    3.34   -0.27
#  37   -1.55   -0.39    0.06    1.35   -0.12    0.00    0.00      -0.65    3.10   -0.27
#  38   -0.70   -0.71    0.95    0.47   -0.09    0.00    0.00      -0.08    1.39   -0.28
#  39   -0.80   -0.40    0.10    0.37   -0.09    0.00    0.00      -0.83    1.10   -0.28
#  40   -0.69   -0.51    0.37    0.60   -0.10    0.00    0.00      -0.33    1.41   -0.24
#  41   -0.29   -1.21    1.33    0.17   -0.14    0.00    0.00      -0.13    0.34   -0.28
#  42   -0.37   -0.52    0.12    0.31   -0.16    0.00    0.00      -0.62    0.56   -0.28
#  43   -0.64   -0.33    0.05    0.18   -0.09    0.00    0.00      -0.84    0.57   -0.28
#  44   -1.13   -0.73    0.69    0.05   -0.14    0.00    0.00      -1.27    0.09   -0.28
#  45   -0.42   -0.39    0.11    0.12   -0.09    0.00    0.00      -0.67    0.40   -0.28
#  46   -0.23   -0.54    0.18    0.24   -0.13    0.00    0.00      -0.48    0.53   -0.28
#  47   -0.24   -0.28    0.03    0.40   -0.07    0.00    0.00      -0.16    1.57   -0.28
#  48   -0.61   -0.27    0.08    0.24   -0.05    0.00    0.00      -0.61    1.33   -0.28
#  49  -16.34   -0.16    0.04    3.43    0.30    0.00    0.00     -12.74    6.79    0.59
#  50   -3.40   -0.82    0.23    0.30   -0.14    0.00    0.00      -3.82    0.46   -0.22
#  51   -3.03   -1.32    1.20    0.47   -0.17    0.00    0.00      -2.85    0.75   -0.28
#  52   -2.96   -0.92    0.37    0.56   -0.18    0.00    0.00      -3.13    0.88   -0.28
#  53   -2.94   -0.89    0.58    0.67   -0.15    0.00    0.00      -2.74    1.26   -0.28
#  54   -2.43   -0.32    0.04    0.54   -0.08    0.00    0.00      -2.25    1.83   -0.28

@<TRIPOS>MOLECULE
          T533103        32
   54    56     0     0     0



@<TRIPOS>ATOM
      1 O1          0.9345    -3.6361    94.3194 O.2        1          -0.5179
      2 C1          0.3118    -4.2458    95.1629 C.2        1           0.5205
      3 C2          1.0251    -5.2082    96.0773 C.3        1          -0.1575
      4 C3          2.5147    -5.2334    95.7293 C.3        1           0.1185
      5 N1          3.2081    -6.1689    96.6181 N.pl3      1          -0.6619
      6 C4          4.5741    -6.3614    96.4916 C.ar       1           0.5208
      7 C5          5.3013    -5.6644    95.5237 C.ar       1          -0.2700
      8 C6          6.6610    -5.8877    95.4341 C.ar       1           0.2121
      9 N2          7.2326    -6.7499    96.2622 N.ar       1          -0.5749
     10 H1          8.1876    -6.9090    96.2025 H          1           0.4415
     11 C7          6.5182    -7.3972    97.1709 C.ar       1           0.6568
     12 N3          7.1525    -8.2896    98.0174 N.pl3      1          -0.6711
     13 C8          8.4582    -8.8442    97.6519 C.3        1           0.0928
     14 C9          8.3572   -10.3681    97.5591 C.3        1          -0.0967
     15 C10         9.7547   -10.9799    97.6763 C.3        1          -0.1184
     16 C11         9.6537   -12.5038    97.5835 C.3        1          -0.1221
     17 C12         9.0376   -12.8931    96.2383 C.3        1          -0.1249
     18 C13         7.6401   -12.2814    96.1211 C.3        1          -0.1213
     19 C14         7.7411   -10.7575    96.2138 C.3        1          -0.1122
     20 N4          5.2129    -7.2078    97.2928 N.ar       1          -0.5784
     21 N5         -1.0173    -4.0585    95.2860 N.am       1          -0.6669
     22 C15        -1.6796    -3.1649    94.4371 C.ar       1           0.1297
     23 C16        -2.8073    -2.4881    94.8823 C.ar       1          -0.1188
     24 C17        -3.4588    -1.6069    94.0419 C.ar       1          -0.1026
     25 C18        -2.9895    -1.3986    92.7579 C.ar       1          -0.1262
     26 C19        -1.8670    -2.0714    92.3113 C.ar       1          -0.1004
     27 C20        -1.2072    -2.9489    93.1491 C.ar       1          -0.1404
     28 H2          0.8989    -4.8878    97.1115 H          1           0.1136
     29 H3          0.6057    -6.2065    95.9525 H          1           0.1134
     30 H4          2.6407    -5.5538    94.6949 H          1           0.0992
     31 H5          2.9339    -4.2351    95.8539 H          1           0.0992
     32 H6          2.7107    -6.6536    97.2954 H          1           0.4248
     33 H7          4.8111    -4.9672    94.8604 H          1           0.1860
     34 H8          7.2523    -5.3653    94.6964 H          1           0.2158
     35 H9          6.7324    -8.5478    98.8528 H          1           0.4404
     36 H10         8.7671    -8.4412    96.6873 H          1           0.0874
     37 H11         9.1929    -8.5742    98.4104 H          1           0.0871
     38 H12         7.7285   -10.7404    98.3680 H          1           0.0892
     39 H13        10.3833   -10.6074    96.8673 H          1           0.0688
     40 H14        10.1935   -10.7025    98.6346 H          1           0.0610
     41 H15        10.6492   -12.9395    97.6669 H          1           0.0683
     42 H16         9.0251   -12.8762    98.3924 H          1           0.0653
     43 H17         9.6662   -12.5206    95.4294 H          1           0.0641
     44 H18         8.9656   -13.9787    96.1721 H          1           0.0680
     45 H19         7.2012   -12.5586    95.1627 H          1           0.0706
     46 H20         7.0115   -12.6536    96.9300 H          1           0.0656
     47 H21         6.7454   -10.3217    96.1304 H          1           0.0693
     48 H22         8.3698   -10.3851    95.4050 H          1           0.0698
     49 H23        -1.5148    -4.5434    95.9632 H          1           0.4140
     50 H24        -3.1747    -2.6508    95.8848 H          1           0.1372
     51 H25        -4.3360    -1.0800    94.3877 H          1           0.1282
     52 H26        -3.5010    -0.7092    92.1024 H          1           0.1272
     53 H27        -1.5034    -1.9072    91.3076 H          1           0.1298
     54 H28        -0.3278    -3.4706    92.8013 H          1           0.1263
@<TRIPOS>BOND
     1    1    2 2
     2    2    3 1
     3    2   21 am
     4    3    4 1
     5    3   28 1
     6    3   29 1
     7    4    5 1
     8    4   30 1
     9    4   31 1
    10    5    6 1
    11    5   32 1
    12    6   20 ar
    13    6    7 ar
    14    7    8 ar
    15    7   33 1
    16    8    9 ar
    17    8   34 1
    18    9   10 1
    19    9   11 ar
    20   11   12 1
    21   11   20 ar
    22   12   13 1
    23   12   35 1
    24   13   14 1
    25   13   36 1
    26   13   37 1
    27   14   19 1
    28   14   15 1
    29   14   38 1
    30   15   16 1
    31   15   39 1
    32   15   40 1
    33   16   17 1
    34   16   41 1
    35   16   42 1
    36   17   18 1
    37   17   43 1
    38   17   44 1
    39   18   19 1
    40   18   45 1
    41   18   46 1
    42   19   47 1
    43   19   48 1
    44   21   22 1
    45   21   49 1
    46   22   27 ar
    47   22   23 ar
    48   23   24 ar
    49   23   50 1
    50   24   25 ar
    51   24   51 1
    52   25   26 ar
    53   25   52 1
    54   26   27 ar
    55   26   53 1
    56   27   54 1
##########                 Name:              T525981
##########          Protonation:                  100
##########               SMILES:   cc1)[C@@H](CNC(=O)Nc2cc(c(cc2)Cl)Cl)CCC[NH+]3CC[C@@H](CC3)c4c5c([nH]c4)cccc5
##########            Long Name:   enyl)-3-[(2S)-5-[4-(1H-indol-3-yl)piperidin-1-ium-1-yl]-2-phenyl-pentyl]urea
##########          FlexRecCode: 1
##########               Number:                   12
##########   Ligand Source File: /raidb/db2/rgc/tcams/tcams-0000141.db2.gz
##########           GlobalRank: 106
##########                 Rank:                    1
##########               Setnum:                  114
##########             Matchnum:                 1009
##########                Cloud:                    1
##########        Electrostatic:           -38.839218
##########        Van der Waals:           -29.910349
##########  Ligand Polar Desolv:             4.750854
########## Ligand Apolar Desolv:            -3.984349
##########      Internal Energy:             0.000000
##########      Receptor Energy: 0.0
########## Receptor Desolvation:             0.000000
########## Receptor Hydrophobic:             0.000000
##########         Total Energy: -67.98
##########        Ligand Charge:             1.000000
##########            Arbitrary:    +999.9990
##########     heavy atom count:   38
##########           pose count:    1
##########        Ligand Energy:             0.000000
# num electro vdwattr vdwrepu polsolv apolsol rdesolv rhydroe totalscore fullpol fullapo
#   1    0.31   -3.67    0.76   -0.09   -0.55    0.00    0.00      -3.25   -0.16   -0.95
#   2    0.32   -1.57    0.29   -0.12   -0.13    0.00    0.00      -1.21   -0.27   -0.30
#   3    0.78   -1.97    0.79   -0.16   -0.20    0.00    0.00      -0.77   -0.37   -0.46
#   4    1.26   -1.43    0.16   -0.26   -0.17    0.00    0.00      -0.45   -0.62   -0.40
#   5   -1.83   -1.13    0.10    0.46   -0.23    0.00    0.00      -2.63    1.35   -0.68
#   6   11.00   -0.89    0.05   -2.21    0.54    0.00    0.00       8.48   -6.91    1.70
#   7   -8.83   -0.93    0.13    1.71   -0.56    0.00    0.00      -8.48    6.35   -2.09
#   8   -1.14   -3.31    6.85   -0.80    0.10    0.00    0.00       1.71   -2.69    0.34
#   9   15.96   -0.71    0.02   -2.61    0.59    0.00    0.00      13.27  -10.08    2.29
#  10   -2.64   -0.41    0.01    0.49   -0.09    0.00    0.00      -2.64    2.10   -0.38
#  11    1.27   -0.58    0.05   -0.21   -0.04    0.00    0.00       0.49   -0.78   -0.14
#  12    1.90   -0.46    0.04   -0.63   -0.04    0.00    0.00       0.80   -2.81   -0.19
#  13    4.44   -0.84    0.25   -1.13   -0.05    0.00    0.00       2.67   -4.44   -0.21
#  14    0.22   -0.42    0.04    0.05   -0.07    0.00    0.00      -0.19    0.23   -0.35
#  15    9.90   -0.78    0.16   -2.72    0.06    0.00    0.00       6.63  -12.01    0.27
#  16  -16.83   -0.05    0.00    4.49    0.15    0.00    0.00     -12.24   16.66    0.54
#  17    0.20   -0.32    0.02    0.05   -0.06    0.00    0.00      -0.13    0.28   -0.37
#  18    2.56   -0.36    0.02   -0.65   -0.04    0.00    0.00       1.53   -3.35   -0.22
#  19    0.20   -0.28    0.01   -0.06   -0.03    0.00    0.00      -0.16   -0.37   -0.17
#  20    2.58   -0.79    0.24   -0.87   -0.05    0.00    0.00       1.10   -3.54   -0.22
#  21    0.13   -0.40    0.03    0.11   -0.08    0.00    0.00      -0.20    0.54   -0.38
#  22    1.83   -0.50    0.03   -0.50   -0.06    0.00    0.00       0.80   -2.83   -0.35
#  23   -0.87   -0.83    0.06    0.33   -0.29    0.00    0.00      -1.59    1.06   -0.93
#  24    4.12   -0.77    0.04   -2.34    0.37    0.00    0.00       1.42   -7.34    1.17
#  25   -0.20   -0.46    0.02    0.04   -0.16    0.00    0.00      -0.75    0.21   -0.78
#  26   -0.08   -0.48    0.07   -0.16   -0.07    0.00    0.00      -0.73   -1.02   -0.48
#  27   -0.03   -0.32    0.02   -0.10   -0.06    0.00    0.00      -0.49   -0.83   -0.47
#  28   -0.01   -0.29    0.01   -0.14   -0.05    0.00    0.00      -0.49   -1.26   -0.47
#  29    0.15   -0.29    0.01   -0.08   -0.05    0.00    0.00      -0.25   -0.76   -0.47
#  30    0.39   -0.37    0.02   -0.20   -0.06    0.00    0.00      -0.22   -1.41   -0.44
#  31    1.59   -1.03    0.15   -0.31   -0.06    0.00    0.00       0.34   -1.05   -0.22
#  32    1.32   -0.73    0.06   -0.44   -0.10    0.00    0.00       0.11   -1.82   -0.40
#  33    1.77   -1.23    0.34   -0.61   -0.15    0.00    0.00       0.13   -1.90   -0.47
#  34    2.54   -1.42    0.25   -0.83   -0.20    0.00    0.00       0.34   -1.95   -0.47
#  35    2.62   -1.67    0.21   -0.94   -0.22    0.00    0.00       0.01   -2.01   -0.47
#  36    2.63   -1.79    0.36   -0.77   -0.18    0.00    0.00       0.25   -1.91   -0.45
#  37    0.62   -1.36    0.28   -0.26   -0.14    0.00    0.00      -0.86   -0.82   -0.45
#  38    0.04   -1.40    0.18   -0.05   -0.11    0.00    0.00      -1.33   -0.13   -0.30
#  39    0.24   -3.84    1.77   -0.07   -0.37    0.00    0.00      -2.27   -0.19   -0.95
#  40   -2.05   -0.52    0.34    0.35   -0.10    0.00    0.00      -1.98    0.96   -0.28
#  41   -2.27   -0.28    0.02    0.24   -0.07    0.00    0.00      -2.37    0.71   -0.22
#  42   -9.54   -0.02    0.00    1.40    0.13    0.00    0.00      -8.02    6.35    0.59
#  43  -12.42   -0.01    0.00    1.25    0.09    0.00    0.00     -11.09    7.42    0.54
#  44   -0.78   -0.12    0.01    0.11   -0.03    0.00    0.00      -0.80    1.07   -0.28
#  45   -1.55   -0.14    0.00    0.06   -0.03    0.00    0.00      -1.66    0.45   -0.24
#  46   -2.79   -0.31    0.06    0.84   -0.07    0.00    0.00      -2.27    3.13   -0.27
#  47   -0.89   -0.06    0.00    0.14   -0.02    0.00    0.00      -0.82    2.58   -0.28
#  48   -1.09   -0.22    0.05    0.29   -0.05    0.00    0.00      -1.01    1.59   -0.25
#  49   -4.49   -1.04    1.65    0.76   -0.06    0.00    0.00      -3.18    2.38   -0.20
#  50   -2.48   -0.17    0.03    0.51   -0.04    0.00    0.00      -2.14    3.91   -0.28
#  51   -1.54   -0.05    0.00    0.27   -0.01    0.00    0.00      -1.34    5.86   -0.28
#  52   -1.95   -0.13    0.01    0.67   -0.04    0.00    0.00      -1.45    4.45   -0.28
#  53   -1.32   -0.04    0.00    0.16   -0.01    0.00    0.00      -1.21    4.04   -0.28
#  54   -2.03   -0.13    0.01    0.65   -0.03    0.00    0.00      -1.53    4.76   -0.22
#  55   -1.65   -0.08    0.00    0.08   -0.02    0.00    0.00      -1.66    1.21   -0.28
#  56   -2.30   -0.23    0.04    0.63   -0.05    0.00    0.00      -1.91    3.23   -0.27
#  57   -0.81   -0.04    0.00    0.06   -0.01    0.00    0.00      -0.80    1.57   -0.28
#  58   -1.54   -0.44    0.33    0.28   -0.06    0.00    0.00      -1.43    1.41   -0.28
#  59   -2.22   -0.56    0.41    1.06   -0.09    0.00    0.00      -1.41    3.28   -0.27
#  60   -2.90   -0.14    0.01    0.88   -0.04    0.00    0.00      -2.19    5.82   -0.28
#  61   -1.55   -0.05    0.00    0.18   -0.01    0.00    0.00      -1.43    4.25   -0.28
#  62   -3.48   -0.26    0.04    1.54   -0.08    0.00    0.00      -2.24    5.67   -0.28
#  63   -3.80   -0.02    0.00    1.51    0.15    0.00    0.00      -2.15    5.83    0.59
#  64    0.11   -0.13    0.02    0.09   -0.03    0.00    0.00       0.06    0.73   -0.28
#  65    0.07   -0.05    0.00    0.04   -0.01    0.00    0.00       0.04    0.66   -0.28
#  66    0.08   -0.07    0.01    0.07   -0.02    0.00    0.00       0.06    0.96   -0.28
#  67   -0.33   -0.04    0.00    0.08   -0.01    0.00    0.00      -0.31    1.93   -0.28
#  68   -0.75   -0.08    0.00    0.16   -0.02    0.00    0.00      -0.68    1.95   -0.24
#  69   -1.61   -0.32    0.15    0.26   -0.07    0.00    0.00      -1.60    1.07   -0.28
#  70   -2.99   -0.34    0.07    0.27   -0.08    0.00    0.00      -3.06    0.98   -0.28
#  71   -2.98   -0.54    0.19    0.70   -0.11    0.00    0.00      -2.73    1.84   -0.28
#  72   -2.95   -0.60    0.22    1.41   -0.11    0.00    0.00      -2.03    3.66   -0.28
#  73   -0.46   -0.26    0.06    0.32   -0.05    0.00    0.00      -0.38    1.79   -0.28

@<TRIPOS>MOLECULE
          T525981       100
   73    77     0     0     0



@<TRIPOS>ATOM
      1 Cl1         8.4683   -12.3654    97.7951 Cl         1          -0.0426
      2 C1          7.7630   -10.9337    97.1122 C.ar       1          -0.0473
      3 C2          7.7496    -9.7561    97.8387 C.ar       1          -0.0759
      4 C3          7.1888    -8.6157    97.2981 C.ar       1          -0.1048
      5 C4          6.6379    -8.6508    96.0237 C.ar       1           0.1816
      6 N1          6.0693    -7.4957    95.4737 N.am       1          -0.6832
      7 C5          4.7696    -7.4885    95.1170 C.2        1           0.7065
      8 O1          4.0909    -8.4853    95.2731 O.2        1          -0.5654
      9 N2          4.2223    -6.3765    94.5876 N.am       1          -0.7381
     10 C6          2.8095    -6.3688    94.1999 C.3        1           0.1444
     11 C7          2.6074    -5.4058    93.0283 C.3        1          -0.0576
     12 C8          3.0295    -6.0905    91.7268 C.3        1          -0.1064
     13 C9          4.5527    -6.0381    91.5938 C.3        1          -0.1481
     14 C10         4.9749    -6.7229    90.2922 C.3        1          -0.0107
     15 N3          6.4374    -6.6726    90.1645 N.4        1          -0.3823
     16 H1          6.7703    -5.7723    90.4753 H          1           0.4210
     17 C11         6.8114    -6.8724    88.7593 C.3        1          -0.0114
     18 C12         8.3284    -6.7403    88.6074 C.3        1          -0.1375
     19 C13         9.0167    -7.7974    89.4759 C.3        1          -0.0148
     20 C14         8.5615    -7.6262    90.9279 C.3        1          -0.1388
     21 C15         7.0359    -7.7266    90.9924 C.3        1          -0.0067
     22 C16        10.5112    -7.6229    89.3923 C.2        1          -0.1861
     23 C17        11.1705    -6.4714    89.1890 C.2        1           0.0666
     24 N4         12.5192    -6.7025    89.1742 N.pl3      1          -0.5900
     25 C18        12.7666    -8.0424    89.3728 C.ar       1           0.0953
     26 C19        13.9307    -8.8005    89.4474 C.ar       1          -0.1258
     27 C20        13.8500   -10.1588    89.6617 C.ar       1          -0.0926
     28 C21        12.6171   -10.7812    89.8043 C.ar       1          -0.1357
     29 C22        11.4614   -10.0557    89.7345 C.ar       1          -0.0788
     30 C23        11.5203    -8.6767    89.5238 C.ar       1          -0.1002
     31 C24         1.1540    -5.0164    92.9429 C.ar       1          -0.0908
     32 C25         0.2805    -5.7694    92.1807 C.ar       1          -0.1116
     33 C26        -1.0526    -5.4123    92.1023 C.ar       1          -0.1128
     34 C27        -1.5122    -4.3024    92.7864 C.ar       1          -0.1154
     35 C28        -0.6388    -3.5500    93.5491 C.ar       1          -0.1148
     36 C29         0.6934    -3.9097    93.6311 C.ar       1          -0.1219
     37 C30         6.6524    -9.8328    95.2958 C.ar       1          -0.1298
     38 C31         7.2196   -10.9704    95.8391 C.ar       1          -0.0100
     39 Cl2         7.2449   -12.4475    94.9272 Cl         1          -0.0384
     40 H2          8.1780    -9.7288    98.8298 H          1           0.1483
     41 H3          7.1782    -7.6973    97.8662 H          1           0.1504
     42 H4          6.6108    -6.7005    95.3492 H          1           0.4105
     43 H5          4.7637    -5.5814    94.4632 H          1           0.3990
     44 H6          2.5093    -7.3729    93.9009 H          1           0.0758
     45 H7          2.2026    -6.0446    95.0454 H          1           0.0735
     46 H8          3.2142    -4.5134    93.1827 H          1           0.0906
     47 H9          2.7014    -7.1298    91.7401 H          1           0.0839
     48 H10         2.5729    -5.5763    90.8812 H          1           0.0818
     49 H11         4.8808    -4.9987    91.5805 H          1           0.0909
     50 H12         5.0093    -6.5524    92.4395 H          1           0.0874
     51 H13         4.6468    -7.7622    90.3055 H          1           0.1315
     52 H14         4.5184    -6.2086    89.4466 H          1           0.1298
     53 H15         6.4999    -7.8664    88.4386 H          1           0.1289
     54 H16         6.3182    -6.1214    88.1421 H          1           0.1311
     55 H17         8.6043    -6.8907    87.5638 H          1           0.1126
     56 H18         8.6410    -5.7464    88.9277 H          1           0.0859
     57 H19         8.7444    -8.7923    89.1234 H          1           0.0932
     58 H20         9.0041    -8.4098    91.5429 H          1           0.1135
     59 H21         8.8790    -6.6506    91.2963 H          1           0.0864
     60 H22         6.7086    -7.6065    92.0251 H          1           0.1305
     61 H23         6.7194    -8.7019    90.6228 H          1           0.1293
     62 H24        10.7056    -5.5058    89.0562 H          1           0.1651
     63 H25        13.1994    -6.0235    89.0435 H          1           0.4207
     64 H26        14.8946    -8.3259    89.3373 H          1           0.1239
     65 H27        14.7549   -10.7457    89.7189 H          1           0.1304
     66 H28        12.5713   -11.8471    89.9715 H          1           0.1264
     67 H29        10.5059   -10.5466    89.8465 H          1           0.1193
     68 H30         0.6396    -6.6364    91.6462 H          1           0.1215
     69 H31        -1.7349    -6.0001    91.5063 H          1           0.1242
     70 H32        -2.5536    -4.0230    92.7246 H          1           0.1242
     71 H33        -0.9978    -2.6827    94.0835 H          1           0.1240
     72 H34         1.3750    -3.3239    94.2300 H          1           0.1208
     73 H35         6.2246    -9.8625    94.3046 H          1           0.1453
@<TRIPOS>BOND
     1    1    2 1
     2    2   38 ar
     3    2    3 ar
     4    3    4 ar
     5    3   40 1
     6    4    5 ar
     7    4   41 1
     8    5    6 1
     9    5   37 ar
    10    6    7 am
    11    6   42 1
    12    7    8 2
    13    7    9 am
    14    9   10 1
    15    9   43 1
    16   10   11 1
    17   10   44 1
    18   10   45 1
    19   11   12 1
    20   11   31 1
    21   11   46 1
    22   12   13 1
    23   12   47 1
    24   12   48 1
    25   13   14 1
    26   13   49 1
    27   13   50 1
    28   14   15 1
    29   14   51 1
    30   14   52 1
    31   15   16 1
    32   15   21 1
    33   15   17 1
    34   17   18 1
    35   17   53 1
    36   17   54 1
    37   18   19 1
    38   18   55 1
    39   18   56 1
    40   19   20 1
    41   19   22 1
    42   19   57 1
    43   20   21 1
    44   20   58 1
    45   20   59 1
    46   21   60 1
    47   21   61 1
    48   22   30 1
    49   22   23 2
    50   23   24 1
    51   23   62 1
    52   24   25 1
    53   24   63 1
    54   25   30 ar
    55   25   26 ar
    56   26   27 ar
    57   26   64 1
    58   27   28 ar
    59   27   65 1
    60   28   29 ar
    61   28   66 1
    62   29   30 ar
    63   29   67 1
    64   31   36 ar
    65   31   32 ar
    66   32   33 ar
    67   32   68 1
    68   33   34 ar
    69   33   69 1
    70   34   35 ar
    71   34   70 1
    72   35   36 ar
    73   35   71 1
    74   36   72 1
    75   37   38 ar
    76   37   73 1
    77   38   39 1
##########                 Name:              T534386
##########          Protonation:                   43
##########               SMILES:   c1ccc(c(c1)CNc2[nH+]c(nc(n2)N3CC[NH2+]CC3)NCCc4ccc(cc4)O)c5ccc(cc5)C(F)(F)F
##########            Long Name:   ethyl)phenyl]phenyl]methylamino]-1,3,5-triazin-1-ium-2-yl]amino]ethyl]phenol
##########          FlexRecCode: 1
##########               Number:                  139
##########   Ligand Source File: /raidb/db2/rgc/tcams/tcams-0001292.db2.gz
##########           GlobalRank: 106
##########                 Rank:                    1
##########               Setnum:                   25
##########             Matchnum:                 2500
##########                Cloud:                    1
##########        Electrostatic:           -33.977287
##########        Van der Waals:           -33.651047
##########  Ligand Polar Desolv:             4.781566
########## Ligand Apolar Desolv:            -5.130048
##########      Internal Energy:             0.000000
##########      Receptor Energy: 0.0
########## Receptor Desolvation:             0.000000
########## Receptor Hydrophobic:             0.000000
##########         Total Energy: -67.98
##########        Ligand Charge:             2.000000
##########            Arbitrary:    +999.9990
##########     heavy atom count:   40
##########           pose count:    1
##########        Ligand Energy:             0.000000
# num electro vdwattr vdwrepu polsolv apolsol rdesolv rhydroe totalscore fullpol fullapo
#   1   15.16   -2.04    0.71   -2.89    0.55    0.00    0.00      11.49   -6.24    1.19
#   2   -3.18   -1.37    0.15    0.17   -0.13    0.00    0.00      -4.36    0.41   -0.31
#   3    3.81   -1.48    0.20   -1.26   -0.19    0.00    0.00       1.08   -3.04   -0.46
#   4    2.49   -1.10    0.07   -0.72   -0.17    0.00    0.00       0.57   -1.96   -0.46
#   5    2.05   -0.94    0.05   -0.57   -0.12    0.00    0.00       0.47   -1.69   -0.36
#   6    1.26   -0.60    0.03   -0.83   -0.08    0.00    0.00      -0.22   -2.49   -0.23
#   7   -0.99   -0.57    0.07    0.85   -0.10    0.00    0.00      -0.74    3.26   -0.37
#   8   14.19   -0.73    0.06   -5.30    0.41    0.00    0.00       8.64  -22.51    1.73
#   9  -15.46   -0.75    0.09    5.36   -1.08    0.00    0.00     -11.84   23.81   -4.81
#  10    8.73   -0.66    0.08   -4.37    0.38    0.00    0.00       4.15  -21.34    1.84
#  11   -8.14   -0.48    0.05    3.48   -0.74    0.00    0.00      -5.82   22.12   -4.68
#  12    8.91   -0.35    0.01   -3.15    0.28    0.00    0.00       5.69  -21.04    1.84
#  13  -15.58   -0.68    0.08    4.85   -0.99    0.00    0.00     -12.33   23.52   -4.81
#  14   14.77   -0.91    0.11   -5.09    0.40    0.00    0.00       9.28  -21.58    1.68
#  15   -1.69   -0.33    0.01    0.79   -0.06    0.00    0.00      -1.28    4.15   -0.33
#  16    1.30   -1.09    0.14   -0.60   -0.11    0.00    0.00      -0.36   -1.96   -0.37
#  17    0.36   -1.30    0.23   -0.67   -0.14    0.00    0.00      -1.52   -2.16   -0.45
#  18    0.45   -2.15    0.60   -1.32   -0.20    0.00    0.00      -2.62   -3.03   -0.47
#  19    0.78   -2.69    1.17   -1.42   -0.25    0.00    0.00      -2.41   -2.71   -0.47
#  20    2.58   -2.85    1.60   -1.35   -0.23    0.00    0.00      -0.25   -2.71   -0.46
#  21    0.92   -1.69    0.35   -0.34   -0.16    0.00    0.00      -0.92   -0.84   -0.38
#  22    0.64   -1.62    0.29   -0.03   -0.14    0.00    0.00      -0.86   -0.07   -0.33
#  23    3.60   -2.91    1.47   -1.06   -0.21    0.00    0.00       0.89   -2.32   -0.46
#  24    1.73   -3.32    1.96   -0.76   -0.20    0.00    0.00      -0.60   -1.63   -0.44
#  25    4.01   -2.07    1.07   -1.64   -0.15    0.00    0.00       1.21   -4.13   -0.38
#  26    1.20   -1.90    1.13   -0.57   -0.15    0.00    0.00      -0.28   -1.70   -0.44
#  27    2.96   -1.86    0.65   -0.92   -0.13    0.00    0.00       0.70   -2.54   -0.37
#  28   -7.10   -1.42    0.56    3.51   -0.03    0.00    0.00      -4.47    8.71   -0.07
#  29    2.20   -3.39    3.55   -1.71   -0.25    0.00    0.00       0.41   -3.30   -0.48
#  30    0.68   -0.44    0.03   -0.99   -0.14    0.00    0.00      -0.86   -3.17   -0.45
#  31    2.51   -1.97    2.13   -1.23   -0.18    0.00    0.00       1.26   -3.11   -0.45
#  32   18.34   -1.19    0.39   -5.21    0.24    0.00    0.00      12.57  -21.93    0.99
#  33  -17.13   -0.04    0.00    3.77    0.08    0.00    0.00     -13.31   17.31    0.36
#  34    4.07   -0.43    0.05   -2.55    0.21    0.00    0.00       1.36  -20.38    1.71
#  35   -0.59   -0.45    0.11    0.50   -0.08    0.00    0.00      -0.52    2.91   -0.48
#  36    0.14   -0.33    0.02    0.05   -0.09    0.00    0.00      -0.21    0.28   -0.48
#  37    1.53   -0.29    0.02   -2.97    0.12    0.00    0.00      -1.60  -22.40    0.89
#  38   -0.46   -0.01    0.00    1.93    0.05    0.00    0.00       1.51   22.37    0.56
#  39   -1.34   -0.01    0.00    1.82    0.05    0.00    0.00       0.52   22.96    0.57
#  40    0.05   -0.09    0.00    0.02   -0.03    0.00    0.00      -0.05    0.29   -0.48
#  41   -0.40   -0.13    0.00    0.23   -0.04    0.00    0.00      -0.34    2.86   -0.48
#  42    1.08   -1.51    0.29   -0.80   -0.19    0.00    0.00      -1.13   -1.98   -0.46
#  43    2.97   -1.43    0.17   -1.42   -0.21    0.00    0.00       0.08   -3.03   -0.46
#  44  -16.97   -0.10    0.02    2.65    0.50    0.00    0.00     -13.90    6.48    1.22
#  45   -3.98   -0.49    0.15    0.55   -0.10    0.00    0.00      -3.88    1.56   -0.28
#  46   -4.53   -0.27    0.03    1.20   -0.08    0.00    0.00      -3.65    4.33   -0.28
#  47   -2.06   -0.20    0.01    0.67   -0.06    0.00    0.00      -1.63    3.24   -0.28
#  48   -0.94   -0.23    0.02    0.77   -0.07    0.00    0.00      -0.45    3.30   -0.28
#  49   -1.07   -0.17    0.01    0.72   -0.04    0.00    0.00      -0.55    4.51   -0.27
#  50   -0.02   -0.42    0.35    0.86   -0.05    0.00    0.00       0.72    4.42   -0.27
#  51  -12.65   -0.01    0.00    2.06    0.08    0.00    0.00     -10.52   15.76    0.58
#  52  -14.89   -0.03    0.00    3.87    0.16    0.00    0.00     -10.90   14.04    0.58
#  53   -1.40   -0.08    0.00    0.30   -0.01    0.00    0.00      -1.18    4.48   -0.18
#  54   -0.74   -0.06    0.00    0.31   -0.01    0.00    0.00      -0.50    5.70   -0.26
#  55   -0.44   -0.14    0.01    0.65   -0.04    0.00    0.00       0.04    4.93   -0.28
#  56   -0.46   -0.49    0.16    0.91   -0.11    0.00    0.00       0.01    2.29   -0.28
#  57   -1.20   -0.47    0.09    0.80   -0.14    0.00    0.00      -0.91    1.64   -0.28
#  58   -4.18   -0.68    0.37    0.98   -0.13    0.00    0.00      -3.64    2.04   -0.28
#  59   -5.97   -1.15    1.65    1.83   -0.14    0.00    0.00      -3.78    3.69   -0.28
#  60   -3.35   -1.65    3.39    1.53   -0.14    0.00    0.00      -0.22    2.91   -0.27
#  61   -0.43   -0.24    0.05    0.74   -0.05    0.00    0.00       0.06    3.68   -0.27
#  62   -2.87   -0.43    0.13    1.77   -0.08    0.00    0.00      -1.49    5.49   -0.24
#  63   -0.64   -0.30    0.25    0.82   -0.04    0.00    0.00       0.09    5.36   -0.28
#  64   -1.04   -0.13    0.02    0.44   -0.03    0.00    0.00      -0.74    4.08   -0.24
#  65   -1.71   -0.21    0.03    1.57   -0.05    0.00    0.00      -0.37    8.39   -0.28
#  66   -0.67   -0.07    0.00    0.36   -0.02    0.00    0.00      -0.40    5.38   -0.28
#  67   -0.14   -0.02    0.00    0.17   -0.01    0.00    0.00       0.01    8.28   -0.28
#  68   -0.26   -0.02    0.00    0.12   -0.01    0.00    0.00      -0.17    5.29   -0.28
#  69   -0.75   -0.03    0.00    0.11   -0.01    0.00    0.00      -0.67    3.82   -0.24
#  70   -0.38   -0.05    0.00    0.24   -0.01    0.00    0.00      -0.20    5.31   -0.28
#  71   -0.19   -0.70    0.52    1.52   -0.10    0.00    0.00       1.04    4.27   -0.28
#  72   -3.44   -0.45    0.15    0.67   -0.12    0.00    0.00      -3.19    1.54   -0.28

@<TRIPOS>MOLECULE
          T534386        43
   72    76     0     0     0



@<TRIPOS>ATOM
      1 O1          0.5078    -4.8260    95.6870 O.3        1          -0.4956
      2 C1          1.7220    -5.4361    95.6978 C.ar       1           0.1245
      3 C2          2.8293    -4.7898    95.1681 C.ar       1          -0.1430
      4 C3          4.0626    -5.4121    95.1808 C.ar       1          -0.0927
      5 C4          4.1938    -6.6782    95.7205 C.ar       1          -0.1181
      6 C5          5.5403    -7.3549    95.7326 C.3        1          -0.0830
      7 C6          5.7161    -8.1636    94.4457 C.3        1           0.0863
      8 N1          5.6304    -7.2672    93.2901 N.pl3      1          -0.6481
      9 C7          6.3280    -7.5605    92.1361 C.ar       1           0.7000
     10 N2          7.0736    -8.6593    92.0711 N.ar       1          -0.6231
     11 C8          7.7455    -8.9418    90.9595 C.ar       1           0.6928
     12 N3          7.6721    -8.1255    89.9127 N.ar       1          -0.6216
     13 C9          6.9267    -7.0269    89.9776 C.ar       1           0.6994
     14 N4          6.8501    -6.1798    88.8908 N.pl3      1          -0.6405
     15 C10         7.2019    -6.6683    87.5552 C.3        1           0.1273
     16 C11         7.0344    -5.5553    86.5530 C.ar       1          -0.1208
     17 C12         5.8217    -5.3719    85.9196 C.ar       1          -0.0857
     18 C13         5.6666    -4.3508    84.9998 C.ar       1          -0.1063
     19 C14         6.7245    -3.5079    84.7094 C.ar       1          -0.0848
     20 C15         7.9410    -3.6819    85.3370 C.ar       1          -0.0970
     21 C16         8.1015    -4.7061    86.2684 C.ar       1          -0.0356
     22 C17         9.4059    -4.8950    86.9502 C.ar       1          -0.0209
     23 C18         9.6642    -4.2478    88.1569 C.ar       1          -0.1048
     24 C19        10.8790    -4.4274    88.7869 C.ar       1          -0.0609
     25 C20        11.8390    -5.2480    88.2227 C.ar       1          -0.1764
     26 C21        11.5880    -5.8926    87.0249 C.ar       1          -0.0680
     27 C22        10.3746    -5.7246    86.3891 C.ar       1          -0.1208
     28 C23        13.1636    -5.4402    88.9156 C.3        1           0.5062
     29 F1         13.1837    -4.6940    90.0987 F          1          -0.1828
     30 F2         13.3405    -6.7952    89.2156 F          1          -0.1708
     31 F3         14.1961    -5.0101    88.0752 F          1          -0.1698
     32 N5          6.2503    -6.7471    91.0876 N.ar       1          -0.6326
     33 H1          5.7029    -5.9477    91.1334 H          1           0.4412
     34 N6          8.5198   -10.0824    90.8923 N.pl3      1          -0.5672
     35 C24         8.6115   -11.0030    92.0361 C.3        1           0.0920
     36 C25         8.3335   -12.4251    91.5384 C.3        1          -0.0222
     37 N7          9.2442   -12.7420    90.4310 N.4        1          -0.5086
     38 H2         10.1978   -12.6089    90.7329 H          1           0.4333
     39 H3          9.1118   -13.7027    90.1526 H          1           0.4428
     40 C26         8.9671   -11.8624    89.2884 C.3        1          -0.0222
     41 C27         9.2720   -10.4151    89.6726 C.3        1           0.0914
     42 C28         3.0919    -7.3244    96.2495 C.ar       1          -0.0925
     43 C29         1.8575    -6.7042    96.2440 C.ar       1          -0.1427
     44 H4         -0.2007    -5.3527    96.0815 H          1           0.3982
     45 H5          2.7272    -3.8010    94.7458 H          1           0.1353
     46 H6          4.9248    -4.9092    94.7685 H          1           0.1280
     47 H7          6.3251    -6.6015    95.7983 H          1           0.0944
     48 H8          5.6040    -8.0218    96.5924 H          1           0.0940
     49 H9          6.6900    -8.6531    94.4544 H          1           0.0930
     50 H10         4.9313    -8.9172    94.3800 H          1           0.0933
     51 H11         5.0833    -6.4676    93.3362 H          1           0.4470
     52 H12         6.5632    -5.2611    89.0112 H          1           0.4461
     53 H13         8.2382    -7.0060    87.5532 H          1           0.1010
     54 H14         6.5486    -7.4989    87.2883 H          1           0.1002
     55 H15         4.9926    -6.0270    86.1426 H          1           0.1327
     56 H16         4.7163    -4.2113    84.5061 H          1           0.1380
     57 H17         6.5979    -2.7124    83.9900 H          1           0.1394
     58 H18         8.7663    -3.0236    85.1094 H          1           0.1363
     59 H19         8.9157    -3.6066    88.5981 H          1           0.1424
     60 H20        11.0805    -3.9260    89.7221 H          1           0.1433
     61 H21        12.3412    -6.5319    86.5887 H          1           0.1406
     62 H22        10.1779    -6.2318    85.4561 H          1           0.1374
     63 H23         9.6118   -10.9543    92.4661 H          1           0.1134
     64 H24         7.8725   -10.7271    92.7884 H          1           0.1481
     65 H25         8.4915   -13.1325    92.3526 H          1           0.1585
     66 H26         7.3023   -12.4939    91.1920 H          1           0.1391
     67 H27         9.5919   -12.1550    88.4446 H          1           0.1586
     68 H28         7.9167   -11.9482    89.0100 H          1           0.1389
     69 H29         8.9695    -9.7509    88.8630 H          1           0.1480
     70 H30        10.3403   -10.3061    89.8599 H          1           0.1130
     71 H31         3.1970    -8.3133    96.6709 H          1           0.1283
     72 H32         0.9977    -7.2080    96.6606 H          1           0.1355
@<TRIPOS>BOND
     1    1    2 1
     2    1   44 1
     3    2   43 ar
     4    2    3 ar
     5    3    4 ar
     6    3   45 1
     7    4    5 ar
     8    4   46 1
     9    5    6 1
    10    5   42 ar
    11    6    7 1
    12    6   47 1
    13    6   48 1
    14    7    8 1
    15    7   49 1
    16    7   50 1
    17    8    9 1
    18    8   51 1
    19    9   32 ar
    20    9   10 ar
    21   10   11 ar
    22   11   12 ar
    23   11   34 1
    24   12   13 ar
    25   13   14 1
    26   13   32 ar
    27   14   15 1
    28   14   52 1
    29   15   16 1
    30   15   53 1
    31   15   54 1
    32   16   21 ar
    33   16   17 ar
    34   17   18 ar
    35   17   55 1
    36   18   19 ar
    37   18   56 1
    38   19   20 ar
    39   19   57 1
    40   20   21 ar
    41   20   58 1
    42   21   22 1
    43   22   27 ar
    44   22   23 ar
    45   23   24 ar
    46   23   59 1
    47   24   25 ar
    48   24   60 1
    49   25   26 ar
    50   25   28 1
    51   26   27 ar
    52   26   61 1
    53   27   62 1
    54   28   29 1
    55   28   30 1
    56   28   31 1
    57   32   33 1
    58   34   41 1
    59   34   35 1
    60   35   36 1
    61   35   63 1
    62   35   64 1
    63   36   37 1
    64   36   65 1
    65   36   66 1
    66   37   38 1
    67   37   39 1
    68   37   40 1
    69   40   41 1
    70   40   67 1
    71   40   68 1
    72   41   69 1
    73   41   70 1
    74   42   43 ar
    75   42   71 1
    76   43   72 1
##########                 Name:              T539037
##########          Protonation:                   26
##########               SMILES:   [H]/N=C/1\[NH+]=C(N[C@@H](N1OCCCOc2c(cc(cc2Cl)Cl)Cl)CC)N
##########            Long Name:   -[3-(2,4,6-trichlorophenoxy)propoxy]-1,2-dihydro-1,3,5-triazin-5-ium-6-amine
##########          FlexRecCode: 1
##########               Number:                  193
##########   Ligand Source File: /raidb/db2/rgc/tcams/tcams-0001842.db2.gz
##########           GlobalRank: 107
##########                 Rank:                    1
##########               Setnum:                  143
##########             Matchnum:                   61
##########                Cloud:                    1
##########        Electrostatic:           -38.023098
##########        Van der Waals:           -29.358128
##########  Ligand Polar Desolv:             3.611214
########## Ligand Apolar Desolv:            -4.200068
##########      Internal Energy:             0.000000
##########      Receptor Energy: 0.0
########## Receptor Desolvation:             0.000000
########## Receptor Hydrophobic:             0.000000
##########         Total Energy: -67.97
##########        Ligand Charge:             1.000000
##########            Arbitrary:    +999.9990
##########     heavy atom count:   24
##########           pose count:    1
##########        Ligand Energy:             0.000000
# num electro vdwattr vdwrepu polsolv apolsol rdesolv rhydroe totalscore fullpol fullapo
#   1    3.69   -1.27    0.31   -1.31   -0.08    0.00    0.00       1.34   -3.11   -0.19
#   2    2.89   -0.83    0.15   -0.91   -0.07    0.00    0.00       1.21   -2.82   -0.23
#   3   -7.86   -0.45    0.01    2.34   -0.24    0.00    0.00      -6.19    8.98   -0.91
#   4   12.75   -0.54    0.02   -3.96    0.32    0.00    0.00       8.58  -19.09    1.52
#   5  -23.41   -1.27    0.37    5.65   -1.23    0.00    0.00     -19.89   21.41   -4.65
#   6   23.96   -1.35    0.43   -6.02    0.24    0.00    0.00      17.25  -23.41    0.93
#   7   28.90   -3.64    5.69   -5.98    0.39    0.00    0.00      25.35  -15.63    1.02
#   8  -33.84   -0.50    0.82    5.20    0.22    0.00    0.00     -28.10   13.43    0.57
#   9  -21.37   -1.76    0.30    5.17   -2.04    0.00    0.00     -19.70   11.82   -4.66
#  10   25.36   -3.43    0.95   -6.36    0.80    0.00    0.00      17.33  -11.54    1.46
#  11   12.93   -1.08    0.06   -3.37    0.34    0.00    0.00       8.88   -9.27    0.93
#  12    1.75   -1.51    0.20   -0.89    0.21    0.00    0.00      -0.24   -1.96    0.47
#  13   -0.43   -1.17    0.19    0.34   -0.06    0.00    0.00      -1.12    0.73   -0.12
#  14    2.02   -0.82    0.08   -0.47   -0.10    0.00    0.00       0.71   -1.23   -0.25
#  15   -0.77   -1.10    0.17    0.31   -0.05    0.00    0.00      -1.43    0.74   -0.12
#  16    4.02   -0.94    0.05   -0.95    0.30    0.00    0.00       2.48   -2.48    0.79
#  17   -1.23   -1.42    0.17    0.33   -0.10    0.00    0.00      -2.25    0.82   -0.26
#  18    0.20   -1.44    0.19   -0.14   -0.11    0.00    0.00      -1.29   -0.37   -0.29
#  19    0.01   -4.72    4.43   -0.06   -0.33    0.00    0.00      -0.67   -0.19   -0.97
#  20    0.57   -1.51    0.21   -0.29   -0.22    0.00    0.00      -1.24   -0.61   -0.45
#  21    0.15   -1.90    0.53   -0.12   -0.16    0.00    0.00      -1.50   -0.22   -0.30
#  22    0.10   -7.04    4.82   -0.19   -0.62    0.00    0.00      -2.92   -0.31   -0.99
#  23    1.18   -2.26    0.87   -0.32   -0.24    0.00    0.00      -0.78   -0.59   -0.45
#  24    0.52   -1.84    0.34   -0.20   -0.15    0.00    0.00      -1.33   -0.37   -0.29
#  25    0.55   -5.62    1.74   -0.15   -0.59    0.00    0.00      -4.07   -0.24   -0.97
#  26   -1.77   -0.43    0.08    0.15   -0.10    0.00    0.00      -2.06    0.44   -0.28
#  27   -1.56   -0.29    0.04    0.72   -0.08    0.00    0.00      -1.18    2.51   -0.27
#  28   -1.74   -0.85    1.02    0.54   -0.11    0.00    0.00      -1.15    1.35   -0.28
#  29   -1.01   -0.17    0.02    0.22   -0.04    0.00    0.00      -0.98    1.53   -0.27
#  30   -2.37   -0.65    0.63    0.27   -0.09    0.00    0.00      -2.20    0.85   -0.28
#  31   -2.85   -0.12    0.00    0.51   -0.03    0.00    0.00      -2.48    4.58   -0.28
#  32   -4.94   -0.01    0.00    1.05    0.04    0.00    0.00      -3.85   15.06    0.59
#  33   -8.25   -0.01    0.00    1.44    0.05    0.00    0.00      -6.76   15.54    0.59
#  34  -18.69   -0.05    0.00    3.84    0.15    0.00    0.00     -14.75   15.20    0.59
#  35  -16.50   -0.06    0.00    3.51    0.34    0.00    0.00     -12.72    6.06    0.58
#  36   -1.33   -0.71    0.40    1.06   -0.13    0.00    0.00      -0.70    2.27   -0.28
#  37   -0.92   -0.31    0.04    0.29   -0.09    0.00    0.00      -0.99    0.93   -0.28
#  38   -1.75   -0.14    0.00    0.05   -0.03    0.00    0.00      -1.87    0.40   -0.28
#  39   -2.15   -0.42    0.17    0.25   -0.08    0.00    0.00      -2.22    0.94   -0.28
#  40   -0.76   -0.48    0.12    0.48   -0.12    0.00    0.00      -0.75    1.15   -0.28
#  41   -0.14   -0.58    0.25    0.26   -0.10    0.00    0.00      -0.31    0.76   -0.28
#  42   -1.13   -0.28    0.02    0.59   -0.10    0.00    0.00      -0.90    1.63   -0.28
#  43   -2.81   -0.64    0.33    0.74   -0.14    0.00    0.00      -2.52    1.46   -0.28

@<TRIPOS>MOLECULE
          T539037        26
   43    44     0     0     0



@<TRIPOS>ATOM
      1 C1          0.5720    -3.9287    94.2055 C.3        1          -0.1561
      2 C2          1.4248    -4.6769    93.1788 C.3        1          -0.1465
      3 C3          2.2509    -5.7515    93.8885 C.3        1           0.3820
      4 N1          3.1275    -6.4356    92.9202 N.pl3      1          -0.6995
      5 C4          4.2458    -5.7700    92.4878 C.cat      1           0.7446
      6 N2          4.7990    -6.0851    91.2784 N.pl3      1          -0.7844
      7 N3          4.7896    -4.8285    93.2312 N.pl3      1          -0.6206
      8 H1          5.5856    -4.3750    92.9124 H          1           0.4497
      9 C5          4.2677    -4.4793    94.4231 C.2        1           0.5901
     10 N4          4.8264    -3.5320    95.1349 N.2        1          -0.6567
     11 N5          3.1350    -5.1282    94.8918 N.pl3      1          -0.4928
     12 O1          2.8396    -5.1901    96.2753 O.3        1          -0.0692
     13 C6          3.3949    -6.3277    96.9379 C.3        1           0.0225
     14 C7          4.8059    -6.5891    96.4065 C.3        1          -0.1122
     15 C8          5.4005    -7.8072    97.1161 C.3        1           0.0715
     16 O2          6.7181    -8.0513    96.6198 O.3        1          -0.3086
     17 C9          7.3918    -9.1066    97.1501 C.ar       1           0.1155
     18 C10         7.2874   -10.3617    96.5670 C.ar       1          -0.0346
     19 Cl1         6.2968   -10.5857    95.1591 Cl         1          -0.0283
     20 C11         7.9733   -11.4334    97.1080 C.ar       1          -0.0853
     21 C12         8.7633   -11.2553    98.2298 C.ar       1          -0.0170
     22 Cl2         9.6238   -12.6026    98.9066 Cl         1          -0.0296
     23 C13         8.8690   -10.0050    98.8129 C.ar       1          -0.0851
     24 C14         8.1893    -8.9292    98.2719 C.ar       1          -0.0349
     25 Cl3         8.3284    -7.3592    98.9993 Cl         1          -0.0270
     26 H2         -0.0167    -3.1631    93.7000 H          1           0.0786
     27 H3         -0.0963    -4.6310    94.7036 H          1           0.0564
     28 H4          1.2214    -3.4589    94.9441 H          1           0.0717
     29 H5          0.7752    -5.1467    92.4402 H          1           0.0710
     30 H6          2.0931    -3.9746    92.6808 H          1           0.1128
     31 H7          1.5901    -6.4725    94.3699 H          1           0.1562
     32 H8          2.9202    -7.3273    92.5996 H          1           0.4496
     33 H9          4.4007    -6.7777    90.7286 H          1           0.4451
     34 H10         5.5901    -5.6160    90.9698 H          1           0.4420
     35 H11         5.6182    -3.0799    94.8042 H          1           0.3661
     36 H12         3.4401    -6.1373    98.0103 H          1           0.0663
     37 H13         2.7685    -7.1995    96.7497 H          1           0.0667
     38 H14         4.7607    -6.7794    95.3342 H          1           0.0953
     39 H15         5.4323    -5.7172    96.5948 H          1           0.0940
     40 H16         5.4455    -7.6169    98.1884 H          1           0.0618
     41 H17         4.7739    -8.6791    96.9279 H          1           0.0616
     42 H18         7.8921   -12.4103    96.6548 H          1           0.1589
     43 H19         9.4861    -9.8683    99.6884 H          1           0.1588
@<TRIPOS>BOND
     1    1    2 1
     2    1   26 1
     3    1   27 1
     4    1   28 1
     5    2    3 1
     6    2   29 1
     7    2   30 1
     8    3   11 1
     9    3    4 1
    10    3   31 1
    11    4    5 1
    12    4   32 1
    13    5    6 1
    14    5    7 2
    15    6   33 1
    16    6   34 1
    17    7    8 1
    18    7    9 1
    19    9   10 2
    20    9   11 1
    21   10   35 1
    22   11   12 1
    23   12   13 1
    24   13   14 1
    25   13   36 1
    26   13   37 1
    27   14   15 1
    28   14   38 1
    29   14   39 1
    30   15   16 1
    31   15   40 1
    32   15   41 1
    33   16   17 1
    34   17   24 ar
    35   17   18 ar
    36   18   19 1
    37   18   20 ar
    38   20   21 ar
    39   20   42 1
    40   21   22 1
    41   21   23 ar
    42   23   24 ar
    43   23   43 1
    44   24   25 1
##########                 Name:              T529552
##########          Protonation:                   66
##########               SMILES:   H+]=C(/N(C)C)\NC(=[NH2+])NCc1cc(c(cc1)Cl)Cl)/NC(=[NH2+])NCc2cc(c(cc2)Cl)Cl)C
##########            Long Name:   nyl)methylamino]methyl]amino]-(dimethylamino)methylene]ammoniohexyl]ammonium
##########          FlexRecCode: 1
##########               Number:                  309
##########   Ligand Source File: /raidb/db2/rgc/tcams/tcams-0000546.db2.gz
##########           GlobalRank: 109
##########                 Rank:                    1
##########               Setnum:                   83
##########             Matchnum:                 1952
##########                Cloud:                    1
##########        Electrostatic:           -48.392200
##########        Van der Waals:           -32.923367
##########  Ligand Polar Desolv:            18.444645
########## Ligand Apolar Desolv:            -5.033636
##########      Internal Energy:             0.000000
##########      Receptor Energy: 0.0
########## Receptor Desolvation:             0.000000
########## Receptor Hydrophobic:             0.000000
##########         Total Energy: -67.9
##########        Ligand Charge:             4.000000
##########            Arbitrary:    +999.9990
##########     heavy atom count:   42
##########           pose count:    1
##########        Ligand Energy:             0.000000
# num electro vdwattr vdwrepu polsolv apolsol rdesolv rhydroe totalscore fullpol fullapo
#   1   -0.66   -0.66    0.06    0.80   -0.19    0.00    0.00      -0.65    2.22   -0.54
#   2   10.67   -0.62    0.01   -8.59    0.27    0.00    0.00       1.75  -34.89    1.10
#   3   -0.78   -0.57    0.03    0.60   -0.16    0.00    0.00      -0.89    1.89   -0.51
#   4  -14.22   -0.62    0.02   10.41   -0.92    0.00    0.00      -5.33   45.12   -3.99
#   5   14.43   -0.65    0.03   -8.97    0.23    0.00    0.00       5.07  -39.09    1.01
#   6  -14.99   -0.83    0.03   14.78   -1.16    0.00    0.00      -2.17   47.95   -3.75
#   7   17.95   -1.34    0.12  -19.00    0.27    0.00    0.00      -2.01  -45.48    0.64
#   8  -12.07   -0.02    0.00    7.31    0.12    0.00    0.00      -4.66   28.93    0.48
#   9  -10.70   -0.03    0.00    9.81    0.15    0.00    0.00      -0.77   28.18    0.42
#  10    9.31   -0.97    0.06  -13.19    0.58    0.00    0.00      -4.20  -38.88    1.72
#  11   -1.44   -0.64    0.08    2.26   -0.11    0.00    0.00       0.16    7.91   -0.39
#  12    1.22   -1.19    0.13   -0.79   -0.13    0.00    0.00      -0.75   -2.32   -0.37
#  13    0.24   -1.62    0.35   -0.64   -0.16    0.00    0.00      -1.82   -1.80   -0.45
#  14    0.54   -1.50    0.20   -1.97   -0.19    0.00    0.00      -2.91   -4.83   -0.46
#  15    0.01   -1.66    0.42   -1.16   -0.14    0.00    0.00      -2.52   -2.55   -0.30
#  16    0.05   -4.37    1.96   -2.11   -0.54    0.00    0.00      -5.01   -3.73   -0.95
#  17    0.52   -1.64    0.26   -1.43   -0.15    0.00    0.00      -2.45   -2.84   -0.30
#  18    0.31   -5.38    1.89   -2.08   -0.57    0.00    0.00      -5.83   -3.48   -0.95
#  19    0.92   -1.36    0.14   -0.96   -0.19    0.00    0.00      -1.45   -2.31   -0.45
#  20   12.07   -1.01    0.15   -9.17    0.42    0.00    0.00       2.45  -34.93    1.59
#  21   -6.09   -0.02    0.00    5.20    0.09    0.00    0.00      -0.82   27.41    0.47
#  22   -2.02   -1.39    0.62    1.07   -0.12    0.00    0.00      -1.84    3.37   -0.38
#  23    2.83   -0.46    0.04   -1.79   -0.05    0.00    0.00       0.59   -8.06   -0.22
#  24    3.06   -0.73    0.16   -1.77   -0.06    0.00    0.00       0.66   -7.07   -0.22
#  25    1.57   -0.21    0.01   -0.88   -0.03    0.00    0.00       0.46   -7.07   -0.22
#  26    1.96   -0.24    0.01   -1.19   -0.03    0.00    0.00       0.50   -8.02   -0.22
#  27   -0.38   -0.17    0.01    0.32   -0.04    0.00    0.00      -0.26    3.14   -0.38
#  28    2.98   -0.48    0.07   -5.01    0.23    0.00    0.00      -2.21  -34.88    1.59
#  29   -4.13   -0.01    0.00    2.85    0.06    0.00    0.00      -1.23   27.28    0.53
#  30   -1.67   -0.55    0.15    6.30   -0.55    0.00    0.00       3.68   45.87   -4.01
#  31    1.16   -0.28    0.03   -4.02    0.11    0.00    0.00      -3.01  -39.58    1.06
#  32   -0.87   -0.10    0.00    2.36   -0.16    0.00    0.00       1.24   47.66   -3.17
#  33    0.63   -0.07    0.00   -1.56    0.02    0.00    0.00      -0.97  -44.65    0.71
#  34   -0.38    0.00    0.00    0.58    0.01    0.00    0.00       0.21   28.91    0.48
#  35   -0.31    0.00    0.00    0.48    0.01    0.00    0.00       0.18   28.56    0.48
#  36    0.68   -0.08    0.00   -1.49    0.07    0.00    0.00      -0.83  -38.78    1.72
#  37   -0.09   -0.07    0.00    0.36   -0.02    0.00    0.00       0.18    7.73   -0.39
#  38    0.05   -0.25    0.01   -0.22   -0.03    0.00    0.00      -0.44   -2.33   -0.37
#  39    0.06   -0.51    0.06   -0.26   -0.07    0.00    0.00      -0.72   -1.71   -0.45
#  40   -0.13   -1.09    0.32   -1.19   -0.11    0.00    0.00      -2.21   -4.82   -0.46
#  41    0.00   -0.96    0.20   -0.63   -0.07    0.00    0.00      -1.47   -2.56   -0.30
#  42   -0.05   -4.02    3.24   -1.27   -0.32    0.00    0.00      -2.42   -3.74   -0.95
#  43   -0.02   -0.48    0.06   -0.40   -0.04    0.00    0.00      -0.89   -2.88   -0.30
#  44   -0.01   -0.56    0.04   -0.42   -0.11    0.00    0.00      -1.05   -3.53   -0.95
#  45   -0.01   -0.25    0.02   -0.21   -0.04    0.00    0.00      -0.50   -2.42   -0.45
#  46    1.41   -0.65    0.11   -6.57    0.21    0.00    0.00      -5.49  -35.99    1.17
#  47   -0.14   -0.78    0.25    0.74   -0.13    0.00    0.00      -0.07    2.87   -0.51
#  48   -0.09   -0.29    0.02    0.45   -0.08    0.00    0.00       0.00    2.82   -0.53
#  49   -0.66   -0.28    0.11    0.86   -0.05    0.00    0.00      -0.02    4.53   -0.26
#  50   -2.20   -0.25    0.03    2.27   -0.09    0.00    0.00      -0.24    7.26   -0.28
#  51   -1.13   -0.22    0.02    1.37   -0.06    0.00    0.00      -0.03    5.09   -0.24
#  52   -2.45   -0.21    0.02    1.08   -0.05    0.00    0.00      -1.61    5.19   -0.26
#  53   -2.09   -0.18    0.02    0.69   -0.05    0.00    0.00      -1.61    3.93   -0.28
#  54   -2.05   -0.25    0.02    1.82   -0.04    0.00    0.00      -0.49    7.14   -0.15
#  55  -11.44   -0.01    0.00    3.66    0.06    0.00    0.00      -7.73   31.95    0.49
#  56   -6.27   -0.02    0.00    7.71    0.16    0.00    0.00       1.59   27.15    0.58
#  57   -0.29   -0.34    0.20    1.72   -0.05    0.00    0.00       1.25    9.51   -0.27
#  58   -2.31   -0.16    0.01    1.63   -0.04    0.00    0.00      -0.88   10.74   -0.27
#  59    0.15   -0.52    0.29    2.84   -0.08    0.00    0.00       2.68   10.54   -0.28
#  60   -0.94   -0.29    0.03    1.16   -0.09    0.00    0.00      -0.13    3.49   -0.28
#  61   -2.46   -0.27    0.03    2.37   -0.07    0.00    0.00      -0.40    8.86   -0.28
#  62   -4.56   -0.95    0.99    3.87   -0.11    0.00    0.00      -0.77    9.54   -0.28
#  63   -5.54   -0.86    1.23    2.66   -0.08    0.00    0.00      -2.59    9.14   -0.27
#  64   -1.48   -0.07    0.00    0.25   -0.02    0.00    0.00      -1.31    3.83   -0.28
#  65   -0.95   -0.08    0.00    0.41   -0.03    0.00    0.00      -0.64    4.54   -0.28
#  66   -2.24   -0.38    0.11    1.03   -0.07    0.00    0.00      -1.56    3.96   -0.28
#  67   -2.90   -0.43    0.24    0.83   -0.07    0.00    0.00      -2.33    3.51   -0.28
#  68   -0.90   -0.04    0.00    0.13   -0.01    0.00    0.00      -0.81    3.56   -0.28
#  69   -0.57   -0.04    0.00    0.16   -0.01    0.00    0.00      -0.46    4.03   -0.28
#  70   -1.41   -0.10    0.00    0.45   -0.03    0.00    0.00      -1.09    4.45   -0.28
#  71   -1.68   -0.09    0.00    0.34   -0.03    0.00    0.00      -1.44    3.76   -0.28
#  72   -0.64   -0.02    0.00    0.28   -0.01    0.00    0.00      -0.39    9.27   -0.26
#  73   -0.36   -0.06    0.00    0.60   -0.02    0.00    0.00       0.17    9.73   -0.28
#  74   -0.84   -0.01    0.00    2.55    0.04    0.00    0.00       1.74   32.05    0.48
#  75   -0.60    0.00    0.00    0.68    0.01    0.00    0.00       0.09   27.18    0.58
#  76   -0.10   -0.02    0.00    0.22   -0.01    0.00    0.00       0.09    9.48   -0.27
#  77   -0.06   -0.02    0.00    0.21    0.00    0.00    0.00       0.13   11.11   -0.27
#  78   -0.46   -0.08    0.01    0.80   -0.02    0.00    0.00       0.24   10.88   -0.28
#  79   -0.03   -0.57    0.95    0.90   -0.07    0.00    0.00       1.18    3.63   -0.28
#  80   -0.01   -0.02    0.00    0.18   -0.01    0.00    0.00       0.15    8.65   -0.28
#  81   -0.16   -0.46    0.64    1.43   -0.03    0.00    0.00       1.42    6.55   -0.15
#  82   -1.35   -0.42    0.14    1.92   -0.09    0.00    0.00       0.20    6.03   -0.27
#  83   -0.26   -0.11    0.01    0.39   -0.04    0.00    0.00      -0.01    2.99   -0.28
#  84   -0.18   -0.10    0.00    0.35   -0.03    0.00    0.00       0.05    3.32   -0.28
#  85   -0.17   -0.03    0.00    0.16   -0.01    0.00    0.00      -0.04    5.15   -0.27
#  86   -0.19   -0.11    0.01    0.71   -0.03    0.00    0.00       0.39    7.39   -0.28

@<TRIPOS>MOLECULE
          T529552        66
   86    87     0     0     0



@<TRIPOS>ATOM
      1 C1          1.5035    -7.3829    94.8791 C.3        1           0.0459
      2 N1          1.6117    -6.2666    93.9367 N.pl3      1          -0.5957
      3 C2          0.4590    -5.3945    93.6987 C.3        1           0.0372
      4 C3          2.7950    -6.0374    93.2755 C.cat      1           0.7205
      5 N2          3.9934    -6.3758    93.8687 N.pl3      1          -0.6533
      6 C4          4.1153    -6.3470    95.2424 C.cat      1           0.7371
      7 N3          3.4075    -5.5063    95.9416 N.pl3      1          -0.7457
      8 H1          2.7947    -4.9004    95.4963 H          1           0.4608
      9 H2          3.4932    -5.4861    96.9075 H          1           0.4440
     10 N4          4.9837    -7.2055    95.8735 N.pl3      1          -0.6368
     11 C5          5.7798    -8.1512    95.0872 C.3        1           0.1316
     12 C6          6.6435    -8.9706    96.0111 C.ar       1          -0.1445
     13 C7          6.7428   -10.3381    95.8325 C.ar       1          -0.0707
     14 C8          7.5344   -11.0907    96.6791 C.ar       1          -0.0950
     15 C9          8.2284   -10.4758    97.7059 C.ar       1          -0.0012
     16 Cl1         9.2234   -11.4207    98.7694 Cl         1          -0.0053
     17 C10         8.1293    -9.1066    97.8845 C.ar       1          -0.0390
     18 Cl2         9.0001    -8.3334    99.1721 Cl         1          -0.0147
     19 C11         7.3402    -8.3540    97.0330 C.ar       1          -0.0695
     20 N5          2.7844    -5.5008    92.0886 N.pl3      1          -0.5933
     21 H3          1.9416    -5.2628    91.6716 H          1           0.4543
     22 C12         4.0453    -5.2565    91.3840 C.3        1           0.0610
     23 C13         4.4071    -6.4842    90.5457 C.3        1          -0.1405
     24 C14         5.7240    -6.2291    89.8097 C.3        1          -0.1198
     25 C15         6.0858    -7.4569    88.9714 C.3        1          -0.1200
     26 C16         7.4026    -7.2019    88.2354 C.3        1          -0.1398
     27 C17         7.7644    -8.4296    87.3971 C.3        1           0.0571
     28 N6          9.0254    -8.1854    86.6924 N.pl3      1          -0.5918
     29 H4          9.4878    -7.3402    86.8045 H          1           0.4562
     30 C18         9.5256    -9.1034    85.9155 C.cat      1           0.7339
     31 N7          8.8680   -10.3055    85.7561 N.pl3      1          -0.6609
     32 C19         9.1440   -11.3599    86.6014 C.cat      1           0.7355
     33 N8          8.5230   -12.4950    86.4509 N.pl3      1          -0.7352
     34 H5          7.8665   -12.5987    85.7444 H          1           0.4598
     35 H6          8.7170   -13.2365    87.0453 H          1           0.4474
     36 N9         10.0742   -11.2129    87.6026 N.pl3      1          -0.6338
     37 C20        10.3673   -12.3329    88.5005 C.3        1           0.1284
     38 C21        11.4140   -11.9143    89.5006 C.ar       1          -0.1450
     39 C22        11.0332   -11.3555    90.7066 C.ar       1          -0.0714
     40 C23        11.9922   -10.9714    91.6246 C.ar       1          -0.0953
     41 C24        13.3341   -11.1462    91.3373 C.ar       1          -0.0012
     42 Cl3        14.5391   -10.6643    92.4903 Cl         1          -0.0049
     43 C25        13.7155   -11.7060    90.1300 C.ar       1          -0.0387
     44 Cl4        15.3990   -11.9266    89.7680 Cl         1          -0.0134
     45 C26        12.7540   -12.0945    89.2141 C.ar       1          -0.0693
     46 N10        10.7087    -8.8743    85.2542 N.pl3      1          -0.6166
     47 C27        11.4072    -7.5978    85.4233 C.3        1           0.0545
     48 C28        11.2712    -9.9069    84.3802 C.3        1           0.0511
     49 H7          2.4541    -7.9141    94.9240 H          1           0.1352
     50 H8          1.2543    -7.0000    95.8688 H          1           0.1000
     51 H9          0.7212    -8.0651    94.5460 H          1           0.0938
     52 H10         0.7277    -4.6271    92.9727 H          1           0.1372
     53 H11        -0.3706    -5.9861    93.3118 H          1           0.1055
     54 H12         0.1623    -4.9210    94.6347 H          1           0.0756
     55 H13         4.7504    -6.6339    93.3199 H          1           0.4664
     56 H14         5.0694    -7.1853    96.8396 H          1           0.4471
     57 H15         5.1146    -8.8114    94.5308 H          1           0.1224
     58 H16         6.4128    -7.6017    94.3903 H          1           0.1237
     59 H17         6.2011   -10.8184    95.0310 H          1           0.1457
     60 H18         7.6109   -12.1589    96.5395 H          1           0.1586
     61 H19         7.2657    -7.2852    97.1693 H          1           0.1478
     62 H20         3.9350    -4.3906    90.7313 H          1           0.1165
     63 H21         4.8362    -5.0662    92.1096 H          1           0.1145
     64 H22         4.5175    -7.3501    91.1984 H          1           0.0921
     65 H23         3.6163    -6.6746    89.8202 H          1           0.0917
     66 H24         5.6136    -5.3632    89.1570 H          1           0.0793
     67 H25         6.5149    -6.0389    90.5353 H          1           0.0799
     68 H26         6.1961    -8.3229    89.6241 H          1           0.0798
     69 H27         5.2950    -7.6473    88.2458 H          1           0.0794
     70 H28         7.2923    -6.3360    87.5827 H          1           0.0918
     71 H29         8.1935    -7.0115    88.9611 H          1           0.0924
     72 H30         7.8748    -9.2956    88.0499 H          1           0.1159
     73 H31         6.9736    -8.6199    86.6714 H          1           0.1164
     74 H32         8.2116   -10.4093    85.0495 H          1           0.4665
     75 H33        10.5367   -10.3677    87.7147 H          1           0.4475
     76 H34         9.4583   -12.6244    89.0264 H          1           0.1239
     77 H35        10.7375   -13.1774    87.9190 H          1           0.1252
     78 H36         9.9857   -11.2191    90.9313 H          1           0.1450
     79 H37        11.6940   -10.5344    92.5662 H          1           0.1585
     80 H38        13.0507   -12.5351    88.2737 H          1           0.1484
     81 H39        12.3189    -7.6005    84.8259 H          1           0.0633
     82 H40        10.7608    -6.7836    85.0956 H          1           0.1301
     83 H41        11.6617    -7.4592    86.4740 H          1           0.1073
     84 H42        12.2042    -9.5471    83.9466 H          1           0.0990
     85 H43        11.4645   -10.8088    84.9611 H          1           0.1267
     86 H44        10.5632   -10.1331    83.5829 H          1           0.0964
@<TRIPOS>BOND
     1    1    2 1
     2    1   49 1
     3    1   50 1
     4    1   51 1
     5    2    3 1
     6    2    4 1
     7    3   52 1
     8    3   53 1
     9    3   54 1
    10    4    5 1
    11    4   20 2
    12    5    6 1
    13    5   55 1
    14    6    7 2
    15    6   10 1
    16    7    8 1
    17    7    9 1
    18   10   11 1
    19   10   56 1
    20   11   12 1
    21   11   57 1
    22   11   58 1
    23   12   19 ar
    24   12   13 ar
    25   13   14 ar
    26   13   59 1
    27   14   15 ar
    28   14   60 1
    29   15   16 1
    30   15   17 ar
    31   17   18 1
    32   17   19 ar
    33   19   61 1
    34   20   21 1
    35   20   22 1
    36   22   23 1
    37   22   62 1
    38   22   63 1
    39   23   24 1
    40   23   64 1
    41   23   65 1
    42   24   25 1
    43   24   66 1
    44   24   67 1
    45   25   26 1
    46   25   68 1
    47   25   69 1
    48   26   27 1
    49   26   70 1
    50   26   71 1
    51   27   28 1
    52   27   72 1
    53   27   73 1
    54   28   29 1
    55   28   30 2
    56   30   31 1
    57   30   46 1
    58   31   32 1
    59   31   74 1
    60   32   33 2
    61   32   36 1
    62   33   34 1
    63   33   35 1
    64   36   37 1
    65   36   75 1
    66   37   38 1
    67   37   76 1
    68   37   77 1
    69   38   45 ar
    70   38   39 ar
    71   39   40 ar
    72   39   78 1
    73   40   41 ar
    74   40   79 1
    75   41   42 1
    76   41   43 ar
    77   43   44 1
    78   43   45 ar
    79   45   80 1
    80   46   47 1
    81   46   48 1
    82   47   81 1
    83   47   82 1
    84   47   83 1
    85   48   84 1
    86   48   85 1
    87   48   86 1
##########                 Name:              T539144
##########          Protonation:                   19
##########               SMILES:   +]/CCCCCC/[NH+]=C(/NC(=[NH2+])Nc1ccc(cc1)C)\N(CC)CC)/NC(=[NH2+])Nc2ccc(cc2)C
##########            Long Name:   (4-methylanilino)methyl]amino]-(diethylamino)methylene]ammoniohexyl]ammonium
##########          FlexRecCode: 1
##########               Number:                    2
##########   Ligand Source File: /raidb/db2/rgc/tcams/tcams-0001856.db2.gz
##########           GlobalRank: 109
##########                 Rank:                    1
##########               Setnum:                    2
##########             Matchnum:                 2396
##########                Cloud:                    1
##########        Electrostatic:           -57.178516
##########        Van der Waals:           -32.781620
##########  Ligand Polar Desolv:            27.465715
########## Ligand Apolar Desolv:            -5.405119
##########      Internal Energy:             0.000000
##########      Receptor Energy: 0.0
########## Receptor Desolvation:             0.000000
########## Receptor Hydrophobic:             0.000000
##########         Total Energy: -67.9
##########        Ligand Charge:             4.000000
##########            Arbitrary:    +999.9990
##########     heavy atom count:   42
##########           pose count:    1
##########        Ligand Energy:             0.000000
# num electro vdwattr vdwrepu polsolv apolsol rdesolv rhydroe totalscore fullpol fullapo
#   1    5.00   -1.48    0.39   -4.06   -0.10    0.00    0.00      -0.24   -8.82   -0.21
#   2   -2.89   -1.32    0.40    2.60   -0.21    0.00    0.00      -1.42    5.91   -0.48
#   3   13.08   -0.83    0.04  -10.19    0.43    0.00    0.00       2.54  -32.92    1.40
#   4   -0.84   -0.62    0.05    1.05   -0.13    0.00    0.00      -0.49    3.32   -0.41
#   5    1.21   -0.90    0.31   -3.38   -0.06    0.00    0.00      -2.82   -9.94   -0.18
#   6  -14.99   -0.82    0.05   12.03   -1.10    0.00    0.00      -4.83   43.39   -3.97
#   7   19.46   -1.59    0.28  -15.39    0.20    0.00    0.00       2.96  -39.73    0.52
#   8  -22.36   -1.53    0.17   19.97   -1.43    0.00    0.00      -5.18   47.23   -3.38
#   9   31.02   -3.20    0.95  -25.77    0.43    0.00    0.00       3.43  -48.75    0.82
#  10  -18.24   -0.06    0.00   15.46    0.34    0.00    0.00      -2.51   27.41    0.60
#  11  -14.73   -0.07    0.00   12.16    0.13    0.00    0.00      -2.51   25.76    0.27
#  12   10.66   -1.00    0.05   -9.89    0.39    0.00    0.00       0.20  -27.13    1.06
#  13   -0.61   -1.21    0.12    1.80   -0.26    0.00    0.00      -0.17    4.79   -0.70
#  14    2.18   -1.94    0.37   -2.89   -0.18    0.00    0.00      -2.45   -6.44   -0.40
#  15    1.18   -2.30    0.66   -1.97   -0.22    0.00    0.00      -2.64   -4.02   -0.45
#  16    0.22   -1.58    0.23   -2.11   -0.19    0.00    0.00      -3.43   -4.46   -0.41
#  17    2.43   -1.27    0.19   -2.46   -0.11    0.00    0.00      -1.22   -4.55   -0.20
#  18    1.74   -1.71    0.36   -2.44   -0.19    0.00    0.00      -2.25   -5.75   -0.45
#  19    1.70   -1.28    0.16   -2.10   -0.19    0.00    0.00      -1.71   -5.20   -0.46
#  20    8.87   -0.71    0.06   -7.08    0.35    0.00    0.00       1.49  -32.40    1.58
#  21   -4.30   -0.01    0.00    2.24    0.04    0.00    0.00      -2.03   28.05    0.49
#  22   -1.27   -0.95    0.28    0.68   -0.11    0.00    0.00      -1.37    2.37   -0.39
#  23    3.57   -0.60    0.10   -1.95   -0.05    0.00    0.00       1.06   -8.31   -0.22
#  24    1.34   -0.22    0.01   -0.93   -0.03    0.00    0.00       0.17   -7.10   -0.22
#  25    1.19   -0.22    0.01   -0.94   -0.03    0.00    0.00       0.01   -7.25   -0.22
#  26    0.23   -0.32    0.07   -1.04   -0.03    0.00    0.00      -1.09   -8.16   -0.22
#  27   -0.17   -0.28    0.04    0.40   -0.05    0.00    0.00      -0.06    3.18   -0.40
#  28    2.92   -0.17    0.00   -2.48    0.13    0.00    0.00       0.40  -31.04    1.63
#  29   -2.93    0.00    0.00    0.87    0.02    0.00    0.00      -2.04   29.75    0.57
#  30   -3.34   -0.19    0.00    3.44   -0.30    0.00    0.00      -0.39   44.75   -3.87
#  31    2.42   -0.16    0.00   -2.49    0.06    0.00    0.00      -0.17  -37.32    0.84
#  32   -2.63   -0.13    0.00    2.26   -0.24    0.00    0.00      -0.74   42.62   -4.53
#  33    2.69   -0.19    0.00   -3.06    0.04    0.00    0.00      -0.52  -40.41    0.51
#  34   -1.39    0.00    0.00    0.96    0.02    0.00    0.00      -0.42   26.25    0.59
#  35   -1.42    0.00    0.00    1.57    0.00    0.00    0.00       0.16   25.62    0.06
#  36    1.65   -0.11    0.00   -1.79    0.06    0.00    0.00      -0.19  -31.15    1.06
#  37   -0.24   -0.24    0.02    0.68   -0.07    0.00    0.00       0.15    7.11   -0.70
#  38    0.43   -0.39    0.08   -0.91   -0.04    0.00    0.00      -0.84   -8.10   -0.38
#  39    0.19   -0.93    0.52   -0.48   -0.07    0.00    0.00      -0.77   -3.09   -0.45
#  40    0.16   -1.21    0.66   -1.01   -0.08    0.00    0.00      -1.48   -5.21   -0.41
#  41    0.46   -0.89    0.22   -1.40   -0.07    0.00    0.00      -1.68   -4.19   -0.20
#  42    0.34   -0.70    0.12   -0.94   -0.09    0.00    0.00      -1.27   -4.96   -0.45
#  43    0.70   -0.35    0.02   -0.76   -0.06    0.00    0.00      -0.44   -6.13   -0.46
#  44    3.13   -0.33    0.01   -5.21    0.04    0.00    0.00      -2.36  -38.26    0.27
#  45   -0.34   -0.28    0.03    0.60   -0.04    0.00    0.00      -0.04    4.59   -0.33
#  46    0.15   -0.13    0.00   -0.83   -0.01    0.00    0.00      -0.82  -10.12   -0.18
#  47   -0.59   -0.49    0.05    1.38   -0.09    0.00    0.00       0.26    5.98   -0.41
#  48    0.06   -1.06    0.54   -3.05   -0.04    0.00    0.00      -3.56  -11.97   -0.17
#  49   -2.81   -0.81    0.51    0.59   -0.13    0.00    0.00      -2.65    1.28   -0.28
#  50   -1.79   -0.32    0.04    0.44   -0.09    0.00    0.00      -1.73    1.38   -0.28
#  51   -1.82   -0.44    0.12    1.62   -0.10    0.00    0.00      -0.62    4.54   -0.28
#  52   -3.29   -0.59    0.42    1.69   -0.11    0.00    0.00      -1.88    4.34   -0.27
#  53   -3.65   -0.94    1.88    3.36   -0.09    0.00    0.00       0.56    8.29   -0.23
#  54   -2.37   -0.39    0.14    2.29    0.00    0.00    0.00      -0.33    7.04   -0.01
#  55   -1.31   -0.14    0.01    0.74   -0.04    0.00    0.00      -0.75    4.78   -0.28
#  56   -0.13   -0.50    0.33    0.73   -0.09    0.00    0.00       0.34    2.29   -0.27
#  57   -0.36   -0.16    0.03    0.74   -0.04    0.00    0.00       0.22    5.74   -0.27
#  58   -0.75   -0.33    0.13    0.79   -0.07    0.00    0.00      -0.23    2.98   -0.28
#  59  -14.64   -0.06    0.00   12.09    0.13    0.00    0.00      -2.47   30.75    0.34
#  60   -9.03   -0.01    0.00    4.14    0.10    0.00    0.00      -4.80   25.67    0.59
#  61   -1.71   -0.59    0.27    6.18    0.01    0.00    0.00       4.15   14.37    0.02
#  62   -1.60   -1.13    1.82    4.18   -0.14    0.00    0.00       3.13    8.65   -0.28
#  63   -1.78   -0.82    0.74    0.51   -0.11    0.00    0.00      -1.46    1.31   -0.28
#  64   -1.84   -0.48    0.06    0.27   -0.15    0.00    0.00      -2.15    0.49   -0.28
#  65   -1.17   -0.29    0.03    0.94   -0.08    0.00    0.00      -0.57    3.17   -0.28
#  66   -3.84   -0.72    0.47    0.92   -0.12    0.00    0.00      -3.29    2.23   -0.28
#  67   -5.55   -0.30    0.06    1.79   -0.08    0.00    0.00      -4.08    6.35   -0.28
#  68   -1.20   -0.28    0.10    2.29   -0.06    0.00    0.00       0.85   10.44   -0.26
#  69   -3.77   -0.77    0.58    3.53   -0.10    0.00    0.00      -0.53    9.99   -0.28
#  70   -3.06   -0.30    0.09    0.90   -0.06    0.00    0.00      -2.43    4.32   -0.28
#  71   -2.80   -0.19    0.04    0.73   -0.04    0.00    0.00      -2.27    4.83   -0.28
#  72   -0.56   -0.07    0.00    0.32   -0.02    0.00    0.00      -0.32    4.67   -0.28
#  73   -0.60   -0.04    0.00    0.17   -0.01    0.00    0.00      -0.49    4.13   -0.28
#  74   -1.09   -0.05    0.00    0.16   -0.01    0.00    0.00      -1.00    3.29   -0.28
#  75   -0.92   -0.08    0.00    0.30   -0.02    0.00    0.00      -0.72    3.92   -0.28
#  76    0.03   -0.36    0.39    0.83   -0.04    0.00    0.00       0.85    5.76   -0.28
#  77   -0.07   -0.04    0.00    0.24   -0.01    0.00    0.00       0.12    5.16   -0.28
#  78   -0.49   -0.12    0.02    0.80   -0.02    0.00    0.00       0.18    7.76   -0.18
#  79   -0.16   -0.09    0.01    0.75   -0.02    0.00    0.00       0.49    9.03   -0.21
#  80   -1.30    0.00    0.00    1.02    0.01    0.00    0.00      -0.28   27.86    0.27
#  81   -0.84    0.00    0.00    0.49    0.01    0.00    0.00      -0.34   24.26    0.58
#  82   -0.20   -0.04    0.00    0.63    0.00    0.00    0.00       0.39   14.14   -0.09
#  83   -0.32   -0.14    0.02    0.99   -0.03    0.00    0.00       0.53    8.85   -0.28
#  84   -0.35   -0.25    0.03    0.44   -0.07    0.00    0.00      -0.20    1.74   -0.28
#  85   -0.32   -0.63    0.50    0.07   -0.09    0.00    0.00      -0.47    0.22   -0.28
#  86   -0.20   -0.15    0.01    0.45   -0.05    0.00    0.00       0.06    2.75   -0.28
#  87   -1.25   -0.15    0.01    0.29   -0.04    0.00    0.00      -1.14    2.01   -0.28
#  88   -1.81   -0.05    0.00    0.27   -0.01    0.00    0.00      -1.61    5.65   -0.28
#  89   -1.36   -0.28    0.15    1.26   -0.05    0.00    0.00      -0.27    7.54   -0.27
#  90   -0.22   -0.06    0.00    0.36   -0.01    0.00    0.00       0.07    6.48   -0.25
#  91   -0.06   -0.03    0.00    0.15   -0.01    0.00    0.00       0.06    4.53   -0.28
#  92   -0.08   -0.02    0.00    0.02   -0.01    0.00    0.00      -0.07    1.24   -0.28
#  93   -0.04   -0.04    0.00    0.19   -0.01    0.00    0.00       0.09    4.67   -0.22
#  94   -0.92   -0.17    0.04    0.86   -0.03    0.00    0.00      -0.22    7.32   -0.28
#  95   -1.14   -0.22    0.03    1.64   -0.05    0.00    0.00       0.27    8.11   -0.24
#  96   -0.10   -0.51    0.30    0.66   -0.08    0.00    0.00       0.28    2.23   -0.28
#  97    0.44   -0.68    1.15    0.87   -0.04    0.00    0.00       1.73    4.27   -0.21
#  98   -0.06   -0.17    0.03    0.62   -0.04    0.00    0.00       0.39    4.36   -0.25

@<TRIPOS>MOLECULE
          T539144        19
   98    99     0     0     0



@<TRIPOS>ATOM
      1 C1         -0.7139    -4.1069    94.7577 C.3        1          -0.1809
      2 C2          0.4832    -4.8771    95.3189 C.3        1           0.0988
      3 N1          1.0070    -5.7813    94.2920 N.pl3      1          -0.5935
      4 C3          0.4894    -7.1478    94.1864 C.3        1           0.0494
      5 C4          1.6327    -8.1436    94.3914 C.3        1          -0.1945
      6 C5          1.9840    -5.3475    93.4278 C.cat      1           0.7288
      7 N2          2.8917    -4.3927    93.8362 N.pl3      1          -0.6791
      8 C6          3.7140    -4.6400    94.9161 C.cat      1           0.7335
      9 N3          4.5712    -3.7386    95.3019 N.pl3      1          -0.8608
     10 H1          4.6316    -2.8932    94.8299 H          1           0.4472
     11 H2          5.1494    -3.9124    96.0610 H          1           0.4489
     12 N4          3.6285    -5.8394    95.5857 N.pl3      1          -0.4709
     13 C7          4.7606    -6.3751    96.2084 C.ar       1           0.0311
     14 C8          4.6224    -7.1708    97.3383 C.ar       1          -0.1629
     15 C9          5.7423    -7.6981    97.9508 C.ar       1          -0.0962
     16 C10         7.0001    -7.4342    97.4406 C.ar       1          -0.0144
     17 C11         8.2199    -8.0113    98.1116 C.3        1          -0.1424
     18 C12         7.1412    -6.6423    96.3158 C.ar       1          -0.0837
     19 C13         6.0250    -6.1169    95.6950 C.ar       1          -0.0683
     20 N5          2.0526    -5.8384    92.2232 N.pl3      1          -0.5886
     21 H3          1.4142    -6.5098    91.9360 H          1           0.4533
     22 C14         3.0938    -5.3761    91.3022 C.3        1           0.0605
     23 C15         4.3369    -6.2547    91.4552 C.3        1          -0.1406
     24 C16         3.9782    -7.7067    91.1323 C.3        1          -0.1188
     25 C17         5.2214    -8.5852    91.2853 C.3        1          -0.1184
     26 C18         4.8627   -10.0372    90.9623 C.3        1          -0.1444
     27 C19         6.1059   -10.9158    91.1154 C.3        1           0.0616
     28 N6          7.1471   -10.4534    90.1943 N.pl3      1          -0.5587
     29 H4          6.9789    -9.6950    89.6134 H          1           0.4445
     30 C20         8.2987   -11.0607    90.1554 C.cat      1           0.7502
     31 N7          9.3115   -10.5683    89.3589 N.pl3      1          -0.6474
     32 C21         9.0071    -9.8888    88.1974 C.cat      1           0.7299
     33 N8          9.8056    -8.9577    87.7595 N.pl3      1          -0.7508
     34 H5         10.6141    -8.7420    88.2501 H          1           0.4503
     35 H6          9.5918    -8.4798    86.9430 H          1           0.4472
     36 N9          7.8598   -10.1949    87.5018 N.pl3      1          -0.5779
     37 C22         7.2092    -9.2065    86.7560 C.ar       1           0.0856
     38 C23         6.4884    -9.5527    85.6204 C.ar       1          -0.2041
     39 C24         5.8472    -8.5742    84.8863 C.ar       1          -0.0750
     40 C25         5.9227    -7.2510    85.2806 C.ar       1          -0.0488
     41 C26         5.2220    -6.1859    84.4771 C.3        1          -0.1368
     42 C27         6.6396    -6.9028    86.4108 C.ar       1          -0.0625
     43 C28         7.2779    -7.8772    87.1528 C.ar       1          -0.0950
     44 N10         8.5048   -12.1923    90.9080 N.pl3      1          -0.6810
     45 C29         8.2045   -13.5111    90.3451 C.3        1           0.0827
     46 C30         9.0571   -13.7382    89.0952 C.3        1          -0.1855
     47 C31         9.0243   -12.0796    92.2732 C.3        1           0.0941
     48 C32        10.5531   -12.1313    92.2429 C.3        1          -0.2074
     49 H7         -1.1035    -3.4342    95.5215 H          1           0.1028
     50 H8         -0.3987    -3.5276    93.8898 H          1           0.0765
     51 H9         -1.4921    -4.8104    94.4619 H          1           0.0599
     52 H10         1.2614    -4.1736    95.6148 H          1           0.1270
     53 H11         0.1679    -5.4565    96.1866 H          1           0.0926
     54 H12        -0.2728    -7.3076    94.9490 H          1           0.0902
     55 H13         0.0519    -7.2952    93.1989 H          1           0.1329
     56 H14         1.2475    -9.1602    94.3127 H          1           0.0966
     57 H15         2.3947    -7.9838    93.6286 H          1           0.0693
     58 H16         2.0702    -7.9962    95.3788 H          1           0.1080
     59 H17         2.9520    -3.5475    93.3643 H          1           0.4689
     60 H18         2.7830    -6.3130    95.6259 H          1           0.4633
     61 H19         3.6403    -7.3768    97.7376 H          1           0.1477
     62 H20         5.6355    -8.3171    98.8294 H          1           0.1495
     63 H21         9.1138    -7.6976    97.5724 H          1           0.0978
     64 H22         8.2720    -7.6544    99.1401 H          1           0.0899
     65 H23         8.1564    -9.0995    98.1074 H          1           0.0834
     66 H24         8.1250    -6.4380    95.9199 H          1           0.1614
     67 H25         6.1354    -5.5024    94.8137 H          1           0.1566
     68 H26         2.7274    -5.4404    90.2776 H          1           0.1094
     69 H27         3.3495    -4.3417    91.5322 H          1           0.1184
     70 H28         5.1117    -5.9108    90.7700 H          1           0.0932
     71 H29         4.7034    -6.1904    92.4799 H          1           0.0920
     72 H30         3.2036    -8.0507    91.8176 H          1           0.0787
     73 H31         3.6118    -7.7710    90.1077 H          1           0.0791
     74 H32         5.9961    -8.2413    90.6000 H          1           0.0811
     75 H33         5.5880    -8.5209    92.3098 H          1           0.0807
     76 H34         4.0880   -10.3811    91.6475 H          1           0.0905
     77 H35         4.4963   -10.1015    89.9377 H          1           0.0914
     78 H36         6.4725   -10.8514    92.1399 H          1           0.1314
     79 H37         5.8503   -11.9501    90.8852 H          1           0.1236
     80 H38        10.2376   -10.6998    89.6154 H          1           0.4706
     81 H39         7.5022   -11.0961    87.5288 H          1           0.4601
     82 H40         6.4297   -10.5860    85.3116 H          1           0.1326
     83 H41         5.2866    -8.8429    84.0033 H          1           0.1480
     84 H42         5.3929    -5.2125    84.9370 H          1           0.0911
     85 H43         5.6138    -6.1811    83.4600 H          1           0.0871
     86 H44         4.1522    -6.3935    84.4534 H          1           0.0804
     87 H45         6.6966    -5.8685    86.7160 H          1           0.1583
     88 H46         7.8336    -7.6053    88.0380 H          1           0.1543
     89 H47         8.4294   -14.2811    91.0832 H          1           0.1330
     90 H48         7.1487   -13.5606    90.0787 H          1           0.0960
     91 H49         8.8337   -14.7195    88.6764 H          1           0.0825
     92 H50         8.8322   -12.9685    88.3571 H          1           0.1041
     93 H51        10.1129   -13.6889    89.3617 H          1           0.0603
     94 H52         8.7013   -11.1337    92.7080 H          1           0.1310
     95 H53         8.6447   -12.9049    92.8757 H          1           0.1010
     96 H54        10.9396   -12.0475    93.2586 H          1           0.1149
     97 H55        10.8762   -13.0771    91.8081 H          1           0.0610
     98 H56        10.9327   -11.3060    91.6405 H          1           0.0818
@<TRIPOS>BOND
     1    1    2 1
     2    1   49 1
     3    1   50 1
     4    1   51 1
     5    2    3 1
     6    2   52 1
     7    2   53 1
     8    3    4 1
     9    3    6 1
    10    4    5 1
    11    4   54 1
    12    4   55 1
    13    5   56 1
    14    5   57 1
    15    5   58 1
    16    6    7 1
    17    6   20 2
    18    7    8 1
    19    7   59 1
    20    8    9 2
    21    8   12 1
    22    9   10 1
    23    9   11 1
    24   12   13 1
    25   12   60 1
    26   13   19 ar
    27   13   14 ar
    28   14   15 ar
    29   14   61 1
    30   15   16 ar
    31   15   62 1
    32   16   17 1
    33   16   18 ar
    34   17   63 1
    35   17   64 1
    36   17   65 1
    37   18   19 ar
    38   18   66 1
    39   19   67 1
    40   20   21 1
    41   20   22 1
    42   22   23 1
    43   22   68 1
    44   22   69 1
    45   23   24 1
    46   23   70 1
    47   23   71 1
    48   24   25 1
    49   24   72 1
    50   24   73 1
    51   25   26 1
    52   25   74 1
    53   25   75 1
    54   26   27 1
    55   26   76 1
    56   26   77 1
    57   27   28 1
    58   27   78 1
    59   27   79 1
    60   28   29 1
    61   28   30 2
    62   30   31 1
    63   30   44 1
    64   31   32 1
    65   31   80 1
    66   32   33 2
    67   32   36 1
    68   33   34 1
    69   33   35 1
    70   36   37 1
    71   36   81 1
    72   37   43 ar
    73   37   38 ar
    74   38   39 ar
    75   38   82 1
    76   39   40 ar
    77   39   83 1
    78   40   41 1
    79   40   42 ar
    80   41   84 1
    81   41   85 1
    82   41   86 1
    83   42   43 ar
    84   42   87 1
    85   43   88 1
    86   44   45 1
    87   44   47 1
    88   45   46 1
    89   45   89 1
    90   45   90 1
    91   46   91 1
    92   46   92 1
    93   46   93 1
    94   47   48 1
    95   47   94 1
    96   47   95 1
    97   48   96 1
    98   48   97 1
    99   48   98 1
##########                 Name:              T524976
##########          Protonation:                   20
##########               SMILES:   CCN(CCC[NH+]1CCCCC1)c2cc([nH+]/c(=N/c3ccc(cc3)Oc4ccccc4)/[nH]2)C
##########            Long Name:   noxyphenyl)imino-N-(3-piperidin-1-ium-1-ylpropyl)-1H-pyrimidin-3-ium-6-amine
##########          FlexRecCode: 1
##########               Number:                  155
##########   Ligand Source File: /raidb/db2/rgc/tcams/tcams-0000008.db2.gz
##########           GlobalRank: 110
##########                 Rank:                    1
##########               Setnum:                   96
##########             Matchnum:                 4989
##########                Cloud:                    1
##########        Electrostatic:           -44.992359
##########        Van der Waals:           -24.965475
##########  Ligand Polar Desolv:             6.856102
########## Ligand Apolar Desolv:            -4.761488
##########      Internal Energy:             0.000000
##########      Receptor Energy: 0.0
########## Receptor Desolvation:             0.000000
########## Receptor Hydrophobic:             0.000000
##########         Total Energy: -67.86
##########        Ligand Charge:             2.000000
##########            Arbitrary:    +999.9990
##########     heavy atom count:   33
##########           pose count:    1
##########        Ligand Energy:             0.000000
# num electro vdwattr vdwrepu polsolv apolsol rdesolv rhydroe totalscore fullpol fullapo
#   1    0.23   -0.18    0.01   -0.63   -0.02    0.00    0.00      -0.58   -6.35   -0.21
#   2   -0.40   -0.20    0.01    0.43   -0.05    0.00    0.00      -0.21    3.83   -0.44
#   3    5.87   -0.41    0.01   -3.15    0.21    0.00    0.00       2.54  -20.63    1.38
#   4   -1.50   -0.30    0.01    0.41   -0.07    0.00    0.00      -1.45    2.44   -0.39
#   5    3.95   -0.45    0.05   -1.52   -0.04    0.00    0.00       1.99   -7.81   -0.22
#   6    0.27   -0.65    0.13   -0.06   -0.08    0.00    0.00      -0.39   -0.25   -0.35
#   7   10.09   -0.97    0.20   -3.99    0.07    0.00    0.00       5.40  -15.23    0.27
#   8  -14.13   -0.03    0.00    5.43    0.15    0.00    0.00      -8.58   19.60    0.54
#   9    0.16   -0.28    0.01    0.07   -0.06    0.00    0.00      -0.11    0.41   -0.37
#  10    1.37   -0.57    0.06   -1.26   -0.06    0.00    0.00      -0.46   -4.91   -0.25
#  11    3.16   -0.78    0.11   -1.58   -0.09    0.00    0.00       0.81   -4.47   -0.25
#  12    4.75   -1.17    0.23   -1.96   -0.10    0.00    0.00       1.75   -4.77   -0.25
#  13    0.24   -1.23    0.57    0.25   -0.13    0.00    0.00      -0.29    0.76   -0.38
#  14   -6.85   -0.53    0.03    3.53   -0.35    0.00    0.00      -4.17   20.20   -2.01
#  15    4.62   -0.51    0.01   -2.32   -0.08    0.00    0.00       1.72  -11.62   -0.42
#  16   -7.00   -0.78    0.04    3.24   -0.22    0.00    0.00      -4.72   11.04   -0.75
#  17    4.30   -0.94    0.20   -1.91   -0.08    0.00    0.00       1.57   -5.35   -0.21
#  18   12.05   -0.98    0.05   -7.04    0.38    0.00    0.00       4.46  -18.09    0.97
#  19  -12.38   -0.02    0.00    5.32    0.21    0.00    0.00      -6.87   14.93    0.58
#  20   -9.87   -0.90    0.05    6.51   -1.52    0.00    0.00      -5.74   19.75   -4.62
#  21    8.85   -0.71    0.06   -4.80    0.20    0.00    0.00       3.60  -22.25    0.92
#  22    8.79   -1.38    0.12   -6.88    0.84    0.00    0.00       1.49  -16.85    2.05
#  23   -1.29   -1.29    0.12    1.44   -0.23    0.00    0.00      -1.25    3.71   -0.60
#  24    1.08   -2.27    0.77   -1.84   -0.15    0.00    0.00      -2.41   -4.45   -0.36
#  25    0.89   -1.67    0.31   -0.73   -0.18    0.00    0.00      -1.38   -1.85   -0.45
#  26   -1.32   -1.60    0.33    0.23   -0.07    0.00    0.00      -2.44    0.59   -0.19
#  27    3.74   -2.74    2.19   -2.17    0.20    0.00    0.00       1.22   -5.15    0.48
#  28   -1.14   -2.30    1.61    0.73   -0.11    0.00    0.00      -1.20    2.07   -0.31
#  29    1.47   -1.71    0.35   -1.14   -0.20    0.00    0.00      -1.23   -2.57   -0.46
#  30    0.75   -2.39    1.00   -0.72   -0.23    0.00    0.00      -1.58   -1.48   -0.47
#  31    1.46   -1.85    0.43   -1.02   -0.20    0.00    0.00      -1.17   -2.47   -0.47
#  32    0.69   -1.21    0.30   -0.50   -0.15    0.00    0.00      -0.88   -1.55   -0.47
#  33    1.74   -2.36    3.21   -0.93   -0.13    0.00    0.00       1.53   -3.16   -0.43
#  34    2.01   -2.05    0.62   -0.94   -0.19    0.00    0.00      -0.55   -2.22   -0.46
#  35    1.79   -1.56    0.42   -1.26   -0.20    0.00    0.00      -0.81   -2.92   -0.47
#  36   -0.06   -0.03    0.00    0.06   -0.01    0.00    0.00      -0.03    1.73   -0.28
#  37   -0.30   -0.03    0.00    0.06   -0.01    0.00    0.00      -0.28    1.75   -0.28
#  38    0.00   -0.14    0.05    0.17   -0.03    0.00    0.00       0.04    1.65   -0.28
#  39   -0.54   -0.04    0.00    0.28   -0.01    0.00    0.00      -0.32    6.20   -0.28
#  40   -0.17   -0.07    0.00    0.40   -0.02    0.00    0.00       0.14    5.09   -0.22
#  41   -2.25   -0.13    0.01    0.50   -0.03    0.00    0.00      -1.90    4.31   -0.22
#  42   -1.37   -0.07    0.00    0.39   -0.02    0.00    0.00      -1.06    6.50   -0.28
#  43   -1.38   -0.06    0.00    0.34   -0.01    0.00    0.00      -1.11    6.25   -0.22
#  44   -2.79   -0.28    0.07    0.97   -0.06    0.00    0.00      -2.09    4.47   -0.28
#  45   -5.03   -0.51    0.38    1.90   -0.08    0.00    0.00      -3.34    7.08   -0.28
#  46   -2.46   -0.08    0.00    0.61   -0.02    0.00    0.00      -1.94    7.68   -0.28
#  47   -1.44   -0.05    0.00    0.29   -0.01    0.00    0.00      -1.21    5.96   -0.28
#  48   -1.06   -0.05    0.00    0.38   -0.01    0.00    0.00      -0.74    7.96   -0.22
#  49   -0.48   -0.27    0.11    0.32   -0.04    0.00    0.00      -0.36    1.98   -0.28
#  50   -0.42   -0.23    0.03    0.58   -0.05    0.00    0.00      -0.09    2.98   -0.28
#  51   -1.53   -0.17    0.02    0.30   -0.05    0.00    0.00      -1.43    1.72   -0.28
#  52   -2.87   -0.48    0.26   -0.03   -0.09    0.00    0.00      -3.21   -0.10   -0.28
#  53   -4.03   -0.43    0.09    0.53   -0.11    0.00    0.00      -3.94    1.38   -0.28
#  54   -3.66   -0.67    0.30    1.13   -0.12    0.00    0.00      -3.01    2.74   -0.28
#  55   -5.11   -1.59    5.87    2.33   -0.11    0.00    0.00       1.40    6.18   -0.28
#  56   -2.81   -0.15    0.01    0.81   -0.04    0.00    0.00      -2.17    5.58   -0.28
#  57   -1.90   -0.08    0.00    0.67   -0.02    0.00    0.00      -1.33    8.87   -0.21
#  58   -4.81   -0.66    0.68    1.43   -0.10    0.00    0.00      -3.46    4.09   -0.28
#  59   -2.55   -0.19    0.01    0.73   -0.06    0.00    0.00      -2.07    3.39   -0.28
#  60   -3.57   -0.39    0.16    1.47   -0.08    0.00    0.00      -2.42    4.95   -0.28
#  61   -5.93   -0.01    0.00    1.85    0.03    0.00    0.00      -4.07   16.79    0.26
#  62    0.21   -1.18    1.22    2.10   -0.11    0.00    0.00       2.24    5.04   -0.27
#  63   -0.70   -0.47    0.16    1.34   -0.09    0.00    0.00       0.24    4.27   -0.28
#  64   -1.50   -0.37    0.08    1.12   -0.11    0.00    0.00      -0.78    2.95   -0.28
#  65   -0.92   -1.03    1.06    1.06   -0.14    0.00    0.00       0.02    2.18   -0.28
#  66   -2.17   -0.87    1.02    0.57   -0.10    0.00    0.00      -1.55    1.52   -0.28
#  67   -1.05   -0.15    0.01    0.26   -0.04    0.00    0.00      -0.97    1.84   -0.28
#  68   -1.25   -0.43    0.37    0.47   -0.04    0.00    0.00      -0.88    2.42   -0.23
#  69   -3.49   -0.97    0.97    1.14   -0.13    0.00    0.00      -2.47    2.51   -0.28
#  70   -4.05   -0.42    0.15    1.11   -0.11    0.00    0.00      -3.31    2.94   -0.28

@<TRIPOS>MOLECULE
          T524976        20
   70    73     0     0     0



@<TRIPOS>ATOM
      1 C1          3.5043    -9.4355    90.3464 C.3        1          -0.1834
      2 C2          2.7242    -8.3393    91.0750 C.3        1           0.0955
      3 N1          3.5938    -7.6954    92.0626 N.pl3      1          -0.5557
      4 C3          5.0375    -7.6161    91.8264 C.3        1           0.0883
      5 C4          5.3011    -6.8358    90.5369 C.3        1          -0.1788
      6 C5          6.8088    -6.7530    90.2902 C.3        1          -0.0102
      7 N2          7.0621    -6.0037    89.0522 N.4        1          -0.3821
      8 H1          6.4261    -5.2224    88.9973 H          1           0.4217
      9 C6          6.8529    -6.8851    87.8972 C.3        1          -0.0125
     10 C7          7.0363    -6.0887    86.6035 C.3        1          -0.1462
     11 C8          8.4557    -5.5157    86.5600 C.3        1          -0.1413
     12 C9          8.6879    -4.6581    87.8072 C.3        1          -0.1467
     13 C10         8.4440    -5.5090    89.0556 C.3        1          -0.0081
     14 C11         3.0564    -7.1667    93.2082 C.2        1           0.5437
     15 C12         1.7652    -6.6664    93.2148 C.2        1          -0.3379
     16 C13         1.2482    -6.1369    94.3911 C.2        1           0.3383
     17 C14        -0.1557    -5.5894    94.4127 C.3        1          -0.1558
     18 N3          1.9790    -6.1112    95.4888 N.pl3      1          -0.5446
     19 H2          1.6038    -5.7386    96.3019 H          1           0.4627
     20 C15         3.2275    -6.5897    95.5012 C.2        1           0.5719
     21 N4          3.7847    -7.1297    94.3654 N.pl3      1          -0.6433
     22 N5          3.9335    -6.5482    96.6210 N.2        1          -0.5027
     23 C16         5.1802    -7.1090    96.6645 C.ar       1           0.0871
     24 C17         5.3332    -8.4499    97.0263 C.ar       1          -0.1667
     25 C18         6.5925    -9.0108    97.0687 C.ar       1          -0.1066
     26 C19         7.7066    -8.2454    96.7533 C.ar       1           0.0923
     27 O1          8.9463    -8.8030    96.7967 O.3        1          -0.2654
     28 C20         9.1128   -10.0317    96.2410 C.ar       1           0.1061
     29 C21         9.8256   -11.0103    96.9191 C.ar       1          -0.1396
     30 C22         9.9931   -12.2588    96.3523 C.ar       1          -0.0784
     31 C23         9.4512   -12.5338    95.1102 C.ar       1          -0.1383
     32 C24         8.7405   -11.5604    94.4324 C.ar       1          -0.0798
     33 C25         8.5657   -10.3119    94.9970 C.ar       1          -0.1936
     34 C26         7.5598    -6.9129    96.3934 C.ar       1          -0.1014
     35 C27         6.3042    -6.3444    96.3419 C.ar       1          -0.0846
     36 H3          2.8572    -9.9146    89.6116 H          1           0.0953
     37 H4          4.3639    -8.9951    89.8413 H          1           0.0688
     38 H5          3.8473   -10.1778    91.0673 H          1           0.0700
     39 H6          2.3811    -7.5973    90.3542 H          1           0.1095
     40 H7          1.8646    -8.7798    91.5801 H          1           0.1086
     41 H8          5.5151    -7.1069    92.6633 H          1           0.0931
     42 H9          5.4460    -8.6223    91.7320 H          1           0.1301
     43 H10         4.8233    -7.3450    89.7000 H          1           0.1096
     44 H11         4.8927    -5.8296    90.6312 H          1           0.0895
     45 H12         7.2866    -6.2438    91.1272 H          1           0.1358
     46 H13         7.2173    -7.7593    90.1959 H          1           0.1412
     47 H14         7.5759    -7.7003    87.9271 H          1           0.1328
     48 H15         5.8433    -7.2946    87.9313 H          1           0.1263
     49 H16         6.8822    -6.7452    85.7470 H          1           0.1152
     50 H17         6.3135    -5.2734    86.5725 H          1           0.0872
     51 H18         9.1778    -6.3320    86.5394 H          1           0.0844
     52 H19         8.5734    -4.9009    85.6676 H          1           0.0981
     53 H20         9.7145    -4.2920    87.8113 H          1           0.1171
     54 H21         7.9995    -3.8131    87.8012 H          1           0.0882
     55 H22         8.6098    -4.9016    89.9454 H          1           0.1327
     56 H23         9.1321    -6.3542    89.0602 H          1           0.1325
     57 H24         1.1670    -6.6872    92.3158 H          1           0.1972
     58 H25        -0.3863    -5.2200    95.4119 H          1           0.1320
     59 H26        -0.2383    -4.7728    93.6955 H          1           0.1105
     60 H27        -0.8579    -6.3795    94.1462 H          1           0.1260
     61 H28         4.6895    -7.4787    94.3841 H          1           0.4402
     62 H29         4.4669    -9.0459    97.2726 H          1           0.1299
     63 H30         6.7118   -10.0471    97.3483 H          1           0.1429
     64 H31        10.2494   -10.7959    97.8892 H          1           0.1329
     65 H32        10.5480   -13.0207    96.8794 H          1           0.1380
     66 H33         9.5835   -13.5104    94.6686 H          1           0.1329
     67 H34         8.3183   -11.7778    93.4623 H          1           0.1306
     68 H35         8.0070    -9.5534    94.4690 H          1           0.1228
     69 H36         8.4297    -6.3213    96.1491 H          1           0.1473
     70 H37         6.1905    -5.3090    96.0570 H          1           0.1463
@<TRIPOS>BOND
     1    1    2 1
     2    1   36 1
     3    1   37 1
     4    1   38 1
     5    2    3 1
     6    2   39 1
     7    2   40 1
     8    3    4 1
     9    3   14 1
    10    4    5 1
    11    4   41 1
    12    4   42 1
    13    5    6 1
    14    5   43 1
    15    5   44 1
    16    6    7 1
    17    6   45 1
    18    6   46 1
    19    7    8 1
    20    7   13 1
    21    7    9 1
    22    9   10 1
    23    9   47 1
    24    9   48 1
    25   10   11 1
    26   10   49 1
    27   10   50 1
    28   11   12 1
    29   11   51 1
    30   11   52 1
    31   12   13 1
    32   12   53 1
    33   12   54 1
    34   13   55 1
    35   13   56 1
    36   14   21 1
    37   14   15 2
    38   15   16 1
    39   15   57 1
    40   16   17 1
    41   16   18 2
    42   17   58 1
    43   17   59 1
    44   17   60 1
    45   18   19 1
    46   18   20 1
    47   20   21 1
    48   20   22 2
    49   21   61 1
    50   22   23 1
    51   23   35 ar
    52   23   24 ar
    53   24   25 ar
    54   24   62 1
    55   25   26 ar
    56   25   63 1
    57   26   27 1
    58   26   34 ar
    59   27   28 1
    60   28   33 ar
    61   28   29 ar
    62   29   30 ar
    63   29   64 1
    64   30   31 ar
    65   30   65 1
    66   31   32 ar
    67   31   66 1
    68   32   33 ar
    69   32   67 1
    70   33   68 1
    71   34   35 ar
    72   34   69 1
    73   35   70 1
##########                 Name:              T529389
##########          Protonation:                   99
##########               SMILES:   C[C@@H](Cc1ccc(cc1)Oc2ccc(cc2)Cl)[NH2+]C[C@H](c3cccc(c3)Cl)O
##########            Long Name:   xy)phenyl]-1-methyl-ethyl]-[(2S)-2-(3-chlorophenyl)-2-hydroxy-ethyl]ammonium
##########          FlexRecCode: 1
##########               Number:                  125
##########   Ligand Source File: /raidb/db2/rgc/tcams/tcams-0000552.db2.gz
##########           GlobalRank: 111
##########                 Rank:                    1
##########               Setnum:                  374
##########             Matchnum:                 4896
##########                Cloud:                    1
##########        Electrostatic:           -42.937057
##########        Van der Waals:           -28.471352
##########  Ligand Polar Desolv:             7.489497
########## Ligand Apolar Desolv:            -3.921274
##########      Internal Energy:             0.000000
##########      Receptor Energy: 0.0
########## Receptor Desolvation:             0.000000
########## Receptor Hydrophobic:             0.000000
##########         Total Energy: -67.84
##########        Ligand Charge:             1.000000
##########            Arbitrary:    +999.9990
##########     heavy atom count:   28
##########           pose count:    1
##########        Ligand Energy:             0.000000
# num electro vdwattr vdwrepu polsolv apolsol rdesolv rhydroe totalscore fullpol fullapo
#   1    3.02   -0.35    0.01   -1.16   -0.04    0.00    0.00       1.48   -5.85   -0.19
#   2   -0.93   -0.82    0.19    0.62   -0.07    0.00    0.00      -1.00    2.22   -0.24
#   3    3.38   -1.05    0.20   -1.11   -0.09    0.00    0.00       1.34   -2.69   -0.21
#   4    4.64   -1.22    0.13   -0.92   -0.12    0.00    0.00       2.50   -2.44   -0.33
#   5    3.18   -1.73    0.33   -0.72   -0.17    0.00    0.00       0.90   -1.63   -0.38
#   6    3.01   -1.90    0.46   -1.16   -0.20    0.00    0.00       0.22   -2.68   -0.46
#   7   -2.23   -1.43    0.21    0.27   -0.14    0.00    0.00      -3.31    0.63   -0.31
#   8    3.63   -1.33    0.11   -1.25    0.24    0.00    0.00       1.39   -2.47    0.47
#   9   -0.79   -1.63    0.32    0.30   -0.08    0.00    0.00      -1.87    0.71   -0.18
#  10    1.34   -1.52    0.19   -0.45   -0.21    0.00    0.00      -0.65   -0.98   -0.46
#  11    0.89   -1.37    0.12   -0.36   -0.23    0.00    0.00      -0.95   -0.74   -0.46
#  12    0.21   -1.38    0.11   -0.22   -0.15    0.00    0.00      -1.43   -0.44   -0.30
#  13    0.65   -5.02    3.34   -0.26   -0.52    0.00    0.00      -1.82   -0.49   -0.99
#  14    0.21   -2.27    0.63   -0.33   -0.20    0.00    0.00      -1.95   -0.78   -0.46
#  15    0.42   -2.35    0.83   -0.39   -0.18    0.00    0.00      -1.67   -0.99   -0.46
#  16    2.53   -1.56    0.20   -1.24   -0.18    0.00    0.00      -0.24   -2.95   -0.43
#  17    1.19   -1.18    0.10   -0.56   -0.17    0.00    0.00      -0.61   -1.50   -0.45
#  18   20.30   -2.24    3.77   -4.59    0.17    0.00    0.00      17.42  -16.90    0.62
#  19  -28.90   -0.40    0.62    4.78    0.13    0.00    0.00     -23.76   14.99    0.42
#  20  -12.40   -0.01    0.00    2.54    0.08    0.00    0.00      -9.79   16.86    0.53
#  21    1.40   -0.86    0.30   -0.20   -0.09    0.00    0.00       0.55   -0.82   -0.36
#  22   -3.63   -0.66    0.14    0.94   -0.03    0.00    0.00      -3.24    4.06   -0.14
#  23   10.06   -0.45    0.03   -2.98    0.32    0.00    0.00       6.97  -15.27    1.64
#  24    2.03   -0.44    0.02   -0.31   -0.06    0.00    0.00       1.25   -1.96   -0.35
#  25    0.83   -0.17    0.00   -0.13   -0.03    0.00    0.00       0.50   -1.83   -0.44
#  26    0.36   -0.18    0.00   -0.15   -0.04    0.00    0.00       0.01   -1.93   -0.47
#  27    0.28   -0.46    0.05   -0.26   -0.07    0.00    0.00      -0.45   -1.77   -0.46
#  28    0.15   -0.69    0.06   -0.21   -0.06    0.00    0.00      -0.77   -0.97   -0.30
#  29    0.22   -3.31    1.42   -0.39   -0.36    0.00    0.00      -2.41   -1.08   -0.99
#  30    1.44   -0.82    0.09   -0.42   -0.10    0.00    0.00       0.19   -1.82   -0.44
#  31   -0.94   -0.07    0.00    0.22   -0.01    0.00    0.00      -0.81    3.22   -0.21
#  32   -0.97   -0.13    0.01    0.35   -0.03    0.00    0.00      -0.77    3.16   -0.28
#  33   -1.81   -0.10    0.00    0.17   -0.02    0.00    0.00      -1.76    1.91   -0.28
#  34   -4.59   -0.32    0.07    1.31   -0.07    0.00    0.00      -3.61    4.91   -0.28
#  35   -5.90   -0.69    0.54    1.30   -0.13    0.00    0.00      -4.88    2.92   -0.28
#  36   -3.03   -0.28    0.02    1.26   -0.08    0.00    0.00      -2.10    4.32   -0.28
#  37   -5.89   -0.69    0.63    2.84   -0.13    0.00    0.00      -3.24    6.17   -0.28
#  38   -3.27   -0.90    0.82    0.83   -0.12    0.00    0.00      -2.63    1.95   -0.28
#  39   -2.20   -0.35    0.05    0.51   -0.11    0.00    0.00      -2.11    1.28   -0.28
#  40   -1.48   -0.40    0.11    0.43   -0.10    0.00    0.00      -1.44    1.19   -0.28
#  41    0.51   -0.94    0.71    0.63   -0.12    0.00    0.00       0.79    1.53   -0.28
#  42    0.06   -0.63    0.28    0.69   -0.10    0.00    0.00       0.30    1.92   -0.28
#  43   -1.28   -0.58    0.27    0.33   -0.09    0.00    0.00      -1.35    0.82   -0.23
#  44   -2.48   -0.20    0.01    0.67   -0.06    0.00    0.00      -2.06    3.03   -0.28
#  45   -2.43   -0.08    0.00    0.47   -0.02    0.00    0.00      -2.05    6.31   -0.22
#  46   -5.14   -0.45    0.20    1.45   -0.08    0.00    0.00      -4.01    5.26   -0.28
#  47   -4.92   -0.53    0.33    1.11   -0.08    0.00    0.00      -4.08    4.10   -0.28
#  48   -8.21   -0.01    0.00    2.17    0.18    0.00    0.00      -5.87   12.36    1.01
#  49   -0.86   -0.02    0.00    0.16   -0.01    0.00    0.00      -0.74    5.32   -0.24
#  50   -0.30   -0.02    0.00    0.06   -0.01    0.00    0.00      -0.27    2.25   -0.28
#  51   -0.41   -0.15    0.04    0.09   -0.03    0.00    0.00      -0.47    0.76   -0.28
#  52   -3.89   -0.40    0.16    0.75   -0.07    0.00    0.00      -3.46    2.90   -0.28

@<TRIPOS>MOLECULE
          T529389        99
   52    54     0     0     0



@<TRIPOS>ATOM
      1 C1          3.3185    -6.7874    93.3762 C.3        1          -0.1841
      2 C2          4.1593    -5.5530    93.0445 C.3        1           0.0289
      3 C3          4.4460    -4.7712    94.3282 C.3        1          -0.0937
      4 C4          5.2010    -5.6489    95.2928 C.ar       1          -0.1641
      5 C5          6.5835    -5.6690    95.2705 C.ar       1          -0.1014
      6 C6          7.2781    -6.4730    96.1533 C.ar       1          -0.1354
      7 C7          6.5873    -7.2605    97.0632 C.ar       1           0.1418
      8 O1          7.2683    -8.0520    97.9329 O.3        1          -0.2495
      9 C8          7.5621    -9.3209    97.5449 C.ar       1           0.0731
     10 C9          8.8298    -9.8393    97.7673 C.ar       1          -0.1091
     11 C10         9.1264   -11.1295    97.3726 C.ar       1          -0.0943
     12 C11         8.1600   -11.9045    96.7553 C.ar       1          -0.0281
     13 Cl1         8.5354   -13.5254    96.2598 Cl         1          -0.0486
     14 C12         6.8955   -11.3895    96.5331 C.ar       1          -0.0959
     15 C13         6.5933   -10.1016    96.9310 C.ar       1          -0.1107
     16 C14         5.2001    -7.2382    97.0837 C.ar       1          -0.1843
     17 C15         4.5105    -6.4285    96.2023 C.ar       1          -0.0623
     18 N1          5.4275    -5.9739    92.4340 N.4        1          -0.5056
     19 H1          6.1033    -5.2289    92.5148 H          1           0.4265
     20 H2          5.7731    -6.7944    92.9086 H          1           0.4290
     21 C16         5.2084    -6.2847    91.0151 C.3        1          -0.0469
     22 C17         6.5291    -6.7231    90.3793 C.3        1           0.1366
     23 O2          7.0188    -7.8852    91.0515 O.3        1          -0.5439
     24 C18         6.3045    -7.0420    88.9236 C.ar       1          -0.1289
     25 C19         5.9616    -8.3260    88.5423 C.ar       1          -0.1044
     26 C20         5.7548    -8.6191    87.2075 C.ar       1          -0.0961
     27 C21         5.8907    -7.6281    86.2528 C.ar       1          -0.0914
     28 C22         6.2345    -6.3438    86.6337 C.ar       1          -0.0310
     29 Cl2         6.4056    -5.0993    85.4356 Cl         1          -0.0478
     30 C23         6.4357    -6.0496    87.9708 C.ar       1          -0.0941
     31 H3          3.1143    -7.3443    92.4617 H          1           0.0817
     32 H4          3.8647    -7.4223    94.0740 H          1           0.0846
     33 H5          2.3776    -6.4751    93.8292 H          1           0.1087
     34 H6          3.6132    -4.9182    92.3468 H          1           0.1402
     35 H7          5.0450    -3.8917    94.0919 H          1           0.1209
     36 H8          3.5051    -4.4590    94.7811 H          1           0.0986
     37 H9          7.1206    -5.0558    94.5621 H          1           0.1313
     38 H10         8.3578    -6.4889    96.1351 H          1           0.1427
     39 H11         9.5842    -9.2345    98.2484 H          1           0.1431
     40 H12        10.1129   -11.5334    97.5456 H          1           0.1469
     41 H13         6.1429   -11.9961    96.0514 H          1           0.1460
     42 H14         5.6047    -9.7015    96.7610 H          1           0.1412
     43 H15         4.6601    -7.8505    97.7907 H          1           0.1367
     44 H16         3.4308    -6.4077    96.2206 H          1           0.1336
     45 H17         4.4785    -7.0894    90.9279 H          1           0.1406
     46 H18         4.8350    -5.3982    90.5024 H          1           0.1445
     47 H19         7.2593    -5.9184    90.4665 H          1           0.1319
     48 H20         7.1862    -7.7530    91.9946 H          1           0.3888
     49 H21         5.8554    -9.1002    89.2877 H          1           0.1296
     50 H22         5.4870    -9.6222    86.9101 H          1           0.1424
     51 H23         5.7306    -7.8579    85.2097 H          1           0.1433
     52 H24         6.6997    -5.0457    88.2693 H          1           0.1383
@<TRIPOS>BOND
     1    1    2 1
     2    1   31 1
     3    1   32 1
     4    1   33 1
     5    2    3 1
     6    2   18 1
     7    2   34 1
     8    3    4 1
     9    3   35 1
    10    3   36 1
    11    4   17 ar
    12    4    5 ar
    13    5    6 ar
    14    5   37 1
    15    6    7 ar
    16    6   38 1
    17    7    8 1
    18    7   16 ar
    19    8    9 1
    20    9   15 ar
    21    9   10 ar
    22   10   11 ar
    23   10   39 1
    24   11   12 ar
    25   11   40 1
    26   12   13 1
    27   12   14 ar
    28   14   15 ar
    29   14   41 1
    30   15   42 1
    31   16   17 ar
    32   16   43 1
    33   17   44 1
    34   18   19 1
    35   18   20 1
    36   18   21 1
    37   21   22 1
    38   21   45 1
    39   21   46 1
    40   22   23 1
    41   22   24 1
    42   22   47 1
    43   23   48 1
    44   24   30 ar
    45   24   25 ar
    46   25   26 ar
    47   25   49 1
    48   26   27 ar
    49   26   50 1
    50   27   28 ar
    51   27   51 1
    52   28   29 1
    53   28   30 ar
    54   30   52 1
##########                 Name:              T540060
##########          Protonation:                   84
##########               SMILES:   C[NH+]1CC[C@H](C1)Oc2ccc(c3c2cccc3)C[NH+]4CC[C@H](C4)NC(=O)c5ccc(c(c5)F)Cl
##########            Long Name:   lpyrrolidin-1-ium-3-yl]oxy-1-naphthyl]methyl]pyrrolidin-1-ium-3-yl]benzamide
##########          FlexRecCode: 1
##########               Number:                   58
##########   Ligand Source File: /raidb/db2/rgc/tcams/tcams-0001975.db2.gz
##########           GlobalRank: 112
##########                 Rank:                    1
##########               Setnum:                  324
##########             Matchnum:                 2456
##########                Cloud:                    1
##########        Electrostatic:           -56.421013
##########        Van der Waals:           -29.698437
##########  Ligand Polar Desolv:            22.679316
########## Ligand Apolar Desolv:            -4.380548
##########      Internal Energy:             0.000000
##########      Receptor Energy: 0.0
########## Receptor Desolvation:             0.000000
########## Receptor Hydrophobic:             0.000000
##########         Total Energy: -67.82
##########        Ligand Charge:             2.000000
##########            Arbitrary:    +999.9990
##########     heavy atom count:   34
##########           pose count:    1
##########        Ligand Energy:             0.000000
# num electro vdwattr vdwrepu polsolv apolsol rdesolv rhydroe totalscore fullpol fullapo
#   1    1.15   -1.76    0.36   -1.25   -0.32    0.00    0.00      -1.82   -1.82   -0.46
#   2    9.41   -1.60    0.22   -8.54    0.35    0.00    0.00      -0.16  -14.28    0.59
#   3  -10.76   -0.04    0.00    8.41    0.25    0.00    0.00      -2.15   18.94    0.56
#   4    0.21   -1.67    0.44    0.19   -0.28    0.00    0.00      -1.11    0.33   -0.49
#   5    4.31   -0.99    0.11   -2.64   -0.11    0.00    0.00       0.67   -6.12   -0.26
#   6   -1.25   -0.86    0.10    0.61   -0.05    0.00    0.00      -1.45    1.54   -0.12
#   7    0.22   -1.27    0.35    0.07   -0.22    0.00    0.00      -0.85    0.15   -0.48
#   8    3.57   -0.77    0.07   -2.86    0.24    0.00    0.00       0.25   -9.64    0.80
#   9   -1.47   -1.11    0.45    0.93   -0.07    0.00    0.00      -1.28    3.90   -0.31
#  10    0.12   -1.15    0.66   -0.70   -0.09    0.00    0.00      -1.16   -3.15   -0.40
#  11    0.10   -0.76    0.11   -0.65   -0.11    0.00    0.00      -1.31   -2.68   -0.45
#  12    0.13   -0.64    0.04   -0.99   -0.12    0.00    0.00      -1.58   -3.93   -0.47
#  13    0.09   -0.73    0.08   -0.79   -0.11    0.00    0.00      -1.46   -3.53   -0.47
#  14    0.33   -0.82    0.12   -0.77   -0.09    0.00    0.00      -1.22   -3.44   -0.40
#  15   -0.01   -1.08    0.40   -0.11   -0.10    0.00    0.00      -0.90   -0.46   -0.40
#  16    3.21   -1.17    0.24   -1.45   -0.09    0.00    0.00       0.74   -5.29   -0.33
#  17   -1.22   -0.96    0.27    0.57   -0.08    0.00    0.00      -1.43    2.00   -0.28
#  18   10.78   -0.87    0.27   -3.42    0.10    0.00    0.00       6.85  -15.34    0.45
#  19  -15.55   -0.03    0.00    3.64    0.09    0.00    0.00     -11.84   19.71    0.49
#  20    0.14   -0.76    0.20    0.16   -0.10    0.00    0.00      -0.37    0.65   -0.42
#  21    2.32   -0.23    0.01   -0.82   -0.04    0.00    0.00       1.24   -5.59   -0.29
#  22   -1.49   -0.22    0.01    0.52   -0.04    0.00    0.00      -1.22    3.65   -0.31
#  23    0.31   -0.22    0.01    0.03   -0.06    0.00    0.00       0.06    0.23   -0.47
#  24    9.09   -0.67    0.06   -4.44    0.45    0.00    0.00       4.51  -20.33    2.08
#  25   -3.12   -1.03    0.22    2.91   -0.15    0.00    0.00      -1.18   12.34   -0.65
#  26   -0.88   -2.95    4.05   -2.29    0.09    0.00    0.00      -1.98   -9.64    0.39
#  27    0.80   -1.17    0.18   -0.61   -0.12    0.00    0.00      -0.92   -2.06   -0.41
#  28    0.30   -1.56    0.29   -0.20   -0.16    0.00    0.00      -1.33   -0.58   -0.44
#  29    0.52   -1.69    0.36   -0.64   -0.19    0.00    0.00      -1.64   -1.59   -0.46
#  30    0.50   -1.55    0.26   -0.48   -0.13    0.00    0.00      -1.39   -1.11   -0.29
#  31    0.35   -5.59    4.78   -0.55   -0.55    0.00    0.00      -1.55   -0.97   -0.97
#  32   -1.59   -1.61    0.34    0.07   -0.13    0.00    0.00      -2.91    0.19   -0.34
#  33    2.07   -1.28    0.34   -0.56   -0.23    0.00    0.00       0.34   -1.14   -0.47
#  34    1.06   -1.46    0.40   -0.49   -0.14    0.00    0.00      -0.64   -1.53   -0.45
#  35    0.53   -1.21    0.25   -0.34   -0.12    0.00    0.00      -0.89   -1.23   -0.43
#  36    3.62   -1.06    0.25   -1.83   -0.10    0.00    0.00       0.87   -7.24   -0.41
#  37   -3.02   -0.53    0.08    2.52   -0.15    0.00    0.00      -1.11    4.57   -0.28
#  38   -3.10   -0.60    0.20    2.58   -0.15    0.00    0.00      -1.06    4.95   -0.28
#  39   -2.94   -0.81    0.34    3.01   -0.17    0.00    0.00      -0.57    5.08   -0.28
#  40   -3.36   -1.00    1.12    2.84   -0.12    0.00    0.00      -0.52    6.49   -0.27
#  41   -3.69   -0.77    0.30    3.28   -0.15    0.00    0.00      -1.02    6.20   -0.28
#  42   -2.95   -0.34    0.06    1.35   -0.08    0.00    0.00      -1.95    4.30   -0.25
#  43   -3.45   -0.33    0.07    0.82   -0.08    0.00    0.00      -2.98    2.70   -0.28
#  44   -1.81   -0.49    0.25    1.63   -0.08    0.00    0.00      -0.50    4.68   -0.22
#  45   -3.62   -0.78    1.25    1.65   -0.09    0.00    0.00      -1.59    4.87   -0.28
#  46   -3.36   -0.83    1.25    2.23   -0.09    0.00    0.00      -0.81    6.21   -0.26
#  47   -0.17   -0.15    0.01    0.38   -0.05    0.00    0.00       0.03    2.25   -0.27
#  48   -0.12   -0.12    0.00    0.19   -0.03    0.00    0.00      -0.08    1.56   -0.28
#  49   -0.19   -0.13    0.01    0.43   -0.04    0.00    0.00       0.08    3.14   -0.28
#  50   -0.34   -0.13    0.01    1.10   -0.03    0.00    0.00       0.61    7.98   -0.22
#  51   -1.91   -0.13    0.01    1.07   -0.03    0.00    0.00      -1.00    7.46   -0.24
#  52   -6.66   -1.11    1.76    2.81   -0.09    0.00    0.00      -3.29    7.98   -0.26
#  53   -3.92   -0.24    0.04    1.38   -0.05    0.00    0.00      -2.78    6.69   -0.24
#  54   -4.73   -0.46    0.24    1.75   -0.08    0.00    0.00      -3.28    6.24   -0.28
#  55   -1.33   -0.03    0.00    0.05   -0.01    0.00    0.00      -1.32    1.47   -0.28
#  56   -1.35   -0.08    0.00    0.28   -0.02    0.00    0.00      -1.17    3.43   -0.28
#  57   -0.70   -0.05    0.00    0.14   -0.01    0.00    0.00      -0.62    2.92   -0.26
#  58   -1.46   -0.07    0.00    0.60   -0.02    0.00    0.00      -0.95    8.49   -0.26
#  59   -1.26   -0.04    0.00    0.31   -0.01    0.00    0.00      -1.00    8.16   -0.26
#  60   -7.47   -0.02    0.00    2.88    0.08    0.00    0.00      -4.52   15.37    0.43
#  61   -0.10   -0.45    0.14    2.39   -0.07    0.00    0.00       1.91    8.09   -0.22
#  62   -0.81   -0.44    0.14    1.45   -0.10    0.00    0.00       0.25    4.16   -0.28
#  63   -3.20   -0.30    0.08    0.28   -0.06    0.00    0.00      -3.20    1.32   -0.27
#  64   -4.52   -0.25    0.04    1.61   -0.06    0.00    0.00      -3.18    7.45   -0.27
#  65   -2.74   -0.15    0.01    0.94   -0.03    0.00    0.00      -1.97    6.14   -0.17

@<TRIPOS>MOLECULE
          T540060        84
   65    69     0     0     0



@<TRIPOS>ATOM
      1 C1         -3.5133    -2.0480    93.4484 C.3        1          -0.0484
      2 N1         -2.8668    -3.3435    93.6968 N.4        1          -0.3882
      3 H1         -3.5144    -3.9640    94.1589 H          1           0.4360
      4 C2         -1.6724    -3.1487    94.5460 C.3        1          -0.0087
      5 C3         -0.6410    -4.1780    94.0201 C.3        1          -0.1732
      6 C4         -0.9131    -4.1420    92.4931 C.3        1           0.0667
      7 C5         -2.4379    -3.9374    92.4173 C.3        1          -0.0092
      8 O1         -0.5367    -5.3785    91.8837 O.3        1          -0.2869
      9 C6          0.7401    -5.4799    91.4321 C.ar       1           0.1837
     10 C7          0.9928    -5.7302    90.0677 C.ar       1          -0.0716
     11 C8         -0.0568    -5.8795    89.1471 C.ar       1          -0.0728
     12 C9          0.2251    -6.1200    87.8371 C.ar       1          -0.1158
     13 C10         1.5424    -6.2208    87.3938 C.ar       1          -0.0610
     14 C11         2.5848    -6.0819    88.2580 C.ar       1          -0.1563
     15 C12         2.3322    -5.8324    89.6177 C.ar       1           0.0027
     16 C13         3.3828    -5.6818    90.5392 C.ar       1          -0.1815
     17 C14         4.8137    -5.7869    90.0783 C.3        1           0.0457
     18 N2          5.5709    -6.6237    91.0186 N.4        1          -0.3886
     19 H2          5.5460    -6.2108    91.9390 H          1           0.4267
     20 C15         6.9500    -6.7429    90.5701 C.3        1          -0.0050
     21 C16         7.1782    -8.2171    90.2608 C.3        1          -0.1596
     22 C17         6.2169    -8.8806    91.2626 C.3        1           0.1370
     23 C18         4.9897    -7.9707    91.0631 C.3        1          -0.0234
     24 N3          6.7305    -8.7975    92.6322 N.am       1          -0.7260
     25 C19         6.3429    -9.7020    93.5532 C.2        1           0.5759
     26 O2          5.5672   -10.5867    93.2475 O.2        1          -0.5093
     27 C20         6.8608    -9.6182    94.9348 C.ar       1          -0.1184
     28 C21         6.9530   -10.7694    95.7195 C.ar       1          -0.0852
     29 C22         7.4373   -10.6865    97.0080 C.ar       1          -0.0866
     30 C23         7.8319    -9.4642    97.5256 C.ar       1          -0.0455
     31 Cl1         8.4399    -9.3682    99.1488 Cl         1          -0.0205
     32 C24         7.7435    -8.3165    96.7519 C.ar       1           0.1122
     33 F1          8.1309    -7.1272    97.2624 F          1          -0.1124
     34 C25         7.2649    -8.3889    95.4581 C.ar       1          -0.0786
     35 C26         3.1033    -5.4403    91.8495 C.ar       1          -0.0233
     36 C27         1.7886    -5.3345    92.2959 C.ar       1          -0.2337
     37 H3         -2.8105    -1.3810    92.9492 H          1           0.1289
     38 H4         -4.3881    -2.1941    92.8148 H          1           0.1304
     39 H5         -3.8211    -1.6077    94.3968 H          1           0.1239
     40 H6         -1.2878    -2.1349    94.4335 H          1           0.1398
     41 H7         -1.9117    -3.3510    95.5899 H          1           0.1457
     42 H8          0.3773    -3.8591    94.2428 H          1           0.1232
     43 H9         -0.8362    -5.1696    94.4283 H          1           0.1142
     44 H10        -0.3896    -3.3069    92.0279 H          1           0.1167
     45 H11        -2.9321    -4.8977    92.2701 H          1           0.1484
     46 H12        -2.6805    -3.2632    91.5958 H          1           0.1492
     47 H13        -1.0825    -5.8043    89.4765 H          1           0.1389
     48 H14        -0.5841    -6.2348    87.1312 H          1           0.1393
     49 H15         1.7390    -6.4122    86.3493 H          1           0.1390
     50 H16         3.6006    -6.1633    87.9005 H          1           0.1264
     51 H17         4.8436    -6.2371    89.0860 H          1           0.1404
     52 H18         5.2569    -4.7918    90.0392 H          1           0.1417
     53 H19         7.1054    -6.1435    89.6729 H          1           0.1347
     54 H20         7.6295    -6.4159    91.3572 H          1           0.1353
     55 H21         6.8972    -8.4507    89.2338 H          1           0.1256
     56 H22         8.2108    -8.5044    90.4584 H          1           0.1042
     57 H23         5.9982    -9.9109    90.9819 H          1           0.1291
     58 H24         4.3021    -8.0654    91.9034 H          1           0.1388
     59 H25         4.4856    -8.2035    90.1251 H          1           0.1479
     60 H26         7.3493    -8.0916    92.8762 H          1           0.4084
     61 H27         6.6452   -11.7236    95.3180 H          1           0.1393
     62 H28         7.5087   -11.5769    97.6150 H          1           0.1559
     63 H29         7.1999    -7.4959    94.8542 H          1           0.1615
     64 H30         3.9143    -5.3258    92.5535 H          1           0.1387
     65 H31         1.5950    -5.1383    93.3401 H          1           0.1378
@<TRIPOS>BOND
     1    1    2 1
     2    1   37 1
     3    1   38 1
     4    1   39 1
     5    2    3 1
     6    2    7 1
     7    2    4 1
     8    4    5 1
     9    4   40 1
    10    4   41 1
    11    5    6 1
    12    5   42 1
    13    5   43 1
    14    6    7 1
    15    6    8 1
    16    6   44 1
    17    7   45 1
    18    7   46 1
    19    8    9 1
    20    9   36 ar
    21    9   10 ar
    22   10   15 ar
    23   10   11 ar
    24   11   12 ar
    25   11   47 1
    26   12   13 ar
    27   12   48 1
    28   13   14 ar
    29   13   49 1
    30   14   15 ar
    31   14   50 1
    32   15   16 ar
    33   16   17 1
    34   16   35 ar
    35   17   18 1
    36   17   51 1
    37   17   52 1
    38   18   19 1
    39   18   23 1
    40   18   20 1
    41   20   21 1
    42   20   53 1
    43   20   54 1
    44   21   22 1
    45   21   55 1
    46   21   56 1
    47   22   23 1
    48   22   24 1
    49   22   57 1
    50   23   58 1
    51   23   59 1
    52   24   25 am
    53   24   60 1
    54   25   26 2
    55   25   27 1
    56   27   34 ar
    57   27   28 ar
    58   28   29 ar
    59   28   61 1
    60   29   30 ar
    61   29   62 1
    62   30   31 1
    63   30   32 ar
    64   32   33 1
    65   32   34 ar
    66   34   63 1
    67   35   36 ar
    68   35   64 1
    69   36   65 1
##########                 Name:              T529429
##########          Protonation:                   96
##########               SMILES:   1C(F)(F)F)NC(=O)N[C@H]2CC[NH+](C2)CCCCCNC(=O)[C@@H]3C[C@@H]3c4ccc(c(c4)Cl)Cl
##########            Long Name:   l)phenyl]carbamoylamino]pyrrolidin-1-ium-1-yl]pentyl]cyclopropanecarboxamide
##########          FlexRecCode: 1
##########               Number:                  227
##########   Ligand Source File: /raidb/db2/rgc/tcams/tcams-0000582.db2.gz
##########           GlobalRank: 114
##########                 Rank:                    1
##########               Setnum:                  178
##########             Matchnum:                 1470
##########                Cloud:                    1
##########        Electrostatic:           -40.654434
##########        Van der Waals:           -30.594919
##########  Ligand Polar Desolv:             6.660093
########## Ligand Apolar Desolv:            -3.192489
##########      Internal Energy:             0.000000
##########      Receptor Energy: 0.0
########## Receptor Desolvation:             0.000000
########## Receptor Hydrophobic:             0.000000
##########         Total Energy: -67.78
##########        Ligand Charge:             1.000000
##########            Arbitrary:    +999.9990
##########     heavy atom count:   38
##########           pose count:    1
##########        Ligand Energy:             0.000000
# num electro vdwattr vdwrepu polsolv apolsol rdesolv rhydroe totalscore fullpol fullapo
#   1    1.78   -1.39    0.28   -0.20   -0.28    0.00    0.00       0.18   -0.34   -0.48
#   2   -3.42   -1.62    0.36    0.86   -0.04    0.00    0.00      -3.87    1.42   -0.07
#   3    1.29   -2.81    2.21   -0.33   -0.29    0.00    0.00       0.07   -0.50   -0.45
#   4    0.63   -2.14    0.90   -0.22   -0.27    0.00    0.00      -1.11   -0.37   -0.45
#   5    1.49   -1.72    0.40   -0.67   -0.20    0.00    0.00      -0.71   -1.28   -0.38
#   6    0.56   -2.04    0.80   -0.24   -0.23    0.00    0.00      -1.14   -0.46   -0.44
#   7    1.75   -1.74    0.29   -0.58   -0.21    0.00    0.00      -0.49   -1.13   -0.40
#   8   -2.13   -1.35    0.14    0.90   -0.27    0.00    0.00      -2.70    2.30   -0.68
#   9   10.53   -1.25    0.10   -4.15    0.67    0.00    0.00       5.90  -10.56    1.70
#  10  -10.26   -1.00    0.06    3.81   -0.74    0.00    0.00      -8.12   10.81   -2.09
#  11    2.59   -1.61    0.74   -2.01    0.10    0.00    0.00      -0.19   -6.36    0.32
#  12   16.73   -1.05    0.07   -5.81    0.78    0.00    0.00      10.73  -15.93    2.13
#  13   -3.41   -0.53    0.02    0.96   -0.10    0.00    0.00      -3.06    3.17   -0.32
#  14    5.00   -0.96    0.09   -1.80   -0.12    0.00    0.00       2.22   -4.32   -0.29
#  15    0.24   -0.84    0.13    0.15   -0.13    0.00    0.00      -0.45    0.46   -0.40
#  16    8.53   -0.59    0.04   -2.90    0.11    0.00    0.00       5.20  -12.30    0.45
#  17  -12.14   -0.02    0.00    3.30    0.10    0.00    0.00      -8.76   18.10    0.56
#  18    0.12   -0.29    0.01    0.03   -0.05    0.00    0.00      -0.19    0.16   -0.32
#  19    0.99   -0.20    0.00   -0.49   -0.03    0.00    0.00       0.28   -4.15   -0.22
#  20    1.01   -0.29    0.01   -0.52   -0.04    0.00    0.00       0.17   -2.88   -0.22
#  21    0.62   -0.15    0.00   -0.22   -0.02    0.00    0.00       0.23   -2.33   -0.22
#  22   -0.35   -0.29    0.02    0.24   -0.07    0.00    0.00      -0.45    1.53   -0.43
#  23    6.64   -0.88    0.11   -2.24    0.55    0.00    0.00       4.18   -9.48    2.32
#  24   -6.55   -1.02    0.17    1.32   -0.17    0.00    0.00      -6.25    4.90   -0.63
#  25    2.36   -0.80    0.07   -0.73    0.07    0.00    0.00       0.98   -2.90    0.29
#  26    5.63   -1.19    0.33   -0.71   -0.15    0.00    0.00       3.90   -1.96   -0.41
#  27    4.02   -0.82    0.08   -0.57   -0.16    0.00    0.00       2.55   -1.46   -0.41
#  28    2.09   -0.78    0.16   -0.38   -0.12    0.00    0.00       0.97   -1.24   -0.39
#  29    0.53   -0.43    0.02   -0.02   -0.05    0.00    0.00       0.06   -0.10   -0.30
#  30    0.33   -0.29    0.01   -0.02   -0.03    0.00    0.00      -0.01   -0.17   -0.29
#  31    0.42   -0.16    0.00   -0.03   -0.03    0.00    0.00       0.21   -0.37   -0.46
#  32    0.13   -0.13    0.00   -0.01   -0.02    0.00    0.00      -0.01   -0.10   -0.30
#  33    0.11   -0.18    0.00    0.00   -0.04    0.00    0.00      -0.11   -0.06   -0.95
#  34    0.33   -0.23    0.01   -0.01   -0.03    0.00    0.00       0.07   -0.11   -0.30
#  35    0.38   -0.60    0.04   -0.01   -0.12    0.00    0.00      -0.32   -0.07   -0.95
#  36    1.41   -0.43    0.02   -0.07   -0.08    0.00    0.00       0.85   -0.41   -0.45
#  37    0.39   -0.39    0.02    0.09   -0.10    0.00    0.00       0.00    0.42   -0.48
#  38    0.87   -1.37    0.16   -0.55   -0.16    0.00    0.00      -1.05   -1.55   -0.46
#  39    0.25   -1.51    0.20   -0.22   -0.18    0.00    0.00      -1.46   -0.53   -0.44
#  40   -1.97   -0.50    0.19    0.33   -0.13    0.00    0.00      -2.08    0.70   -0.27
#  41   -2.74   -0.38    0.04    0.48   -0.11    0.00    0.00      -2.71    0.98   -0.22
#  42   -7.84   -0.02    0.00    2.85    0.18    0.00    0.00      -4.84    9.15    0.59
#  43  -11.22   -0.02    0.00    3.52    0.17    0.00    0.00      -7.55   12.08    0.57
#  44   -2.35   -0.16    0.00    0.25   -0.04    0.00    0.00      -2.30    1.57   -0.26
#  45   -3.70   -0.49    0.14    0.27   -0.10    0.00    0.00      -3.88    0.79   -0.28
#  46   -4.22   -0.41    0.08    1.20   -0.11    0.00    0.00      -3.46    3.05   -0.28
#  47   -3.06   -0.17    0.01    0.78   -0.05    0.00    0.00      -2.49    4.30   -0.26
#  48   -3.96   -0.72    0.89    2.11   -0.10    0.00    0.00      -1.77    6.03   -0.28
#  49   -1.23   -0.08    0.00    0.40   -0.02    0.00    0.00      -0.93    5.43   -0.28
#  50   -1.36   -0.11    0.01    0.47   -0.03    0.00    0.00      -1.03    4.26   -0.27
#  51   -0.53   -0.06    0.00    0.21   -0.02    0.00    0.00      -0.39    3.22   -0.25
#  52   -0.21   -0.04    0.00    0.15   -0.01    0.00    0.00      -0.11    3.56   -0.28
#  53   -0.31   -0.14    0.02    0.20   -0.04    0.00    0.00      -0.27    1.40   -0.28
#  54   -1.46   -0.13    0.01    0.21   -0.04    0.00    0.00      -1.42    1.33   -0.28
#  55   -0.44   -0.03    0.00    0.06   -0.01    0.00    0.00      -0.42    1.90   -0.28
#  56   -0.14   -0.03    0.00    0.06   -0.01    0.00    0.00      -0.11    1.86   -0.28
#  57   -0.18   -0.05    0.00    0.01   -0.01    0.00    0.00      -0.23    0.21   -0.28
#  58   -0.17   -0.16    0.02    0.05   -0.04    0.00    0.00      -0.30    0.34   -0.28
#  59   -8.89   -0.02    0.00    1.46    0.11    0.00    0.00      -7.33    7.33    0.57
#  60   -6.16   -1.10    1.25    1.21   -0.12    0.00    0.00      -4.93    2.81   -0.28
#  61   -2.44   -0.22    0.02    0.23   -0.05    0.00    0.00      -2.45    1.07   -0.22
#  62   -4.16   -0.44    0.10    0.88   -0.11    0.00    0.00      -3.74    2.23   -0.28
#  63   -3.84   -0.58    0.65    0.50   -0.08    0.00    0.00      -3.35    1.69   -0.28
#  64   -0.89   -0.09    0.00    0.09   -0.02    0.00    0.00      -0.89    1.08   -0.19
#  65   -0.24   -0.03    0.00    0.02   -0.01    0.00    0.00      -0.26    0.67   -0.28
#  66   -3.18   -0.15    0.01    0.14   -0.05    0.00    0.00      -3.22    0.85   -0.28
#  67   -3.13   -0.12    0.01    0.76   -0.03    0.00    0.00      -2.51    6.84   -0.26
#  68   -1.04   -0.15    0.02    0.68   -0.03    0.00    0.00      -0.52    5.49   -0.26
#  69   -0.48   -0.28    0.06    0.69   -0.06    0.00    0.00      -0.07    3.13   -0.28
#  70   -0.62   -0.33    0.05    0.44   -0.09    0.00    0.00      -0.54    1.41   -0.27

@<TRIPOS>MOLECULE
          T529429        96
   70    73     0     0     0



@<TRIPOS>ATOM
      1 F1          8.3441   -13.6894    97.1929 F          1          -0.1745
      2 C1          8.8319   -12.7391    98.0964 C.3        1           0.5084
      3 F2          8.3914   -13.0532    99.3865 F          1          -0.1750
      4 F3         10.2307   -12.7429    98.0674 F          1          -0.1752
      5 C2          8.3252   -11.3730    97.7112 C.ar       1          -0.1922
      6 C3          8.6834   -10.2677    98.4607 C.ar       1          -0.0472
      7 C4          8.2210    -9.0143    98.1100 C.ar       1          -0.1217
      8 C5          7.3955    -8.8650    97.0034 C.ar       1           0.1864
      9 N1          6.9256    -7.5964    96.6451 N.am       1          -0.6787
     10 C6          5.7328    -7.4684    96.0306 C.2        1           0.7103
     11 O1          5.0651    -8.4550    95.7879 O.2        1          -0.5550
     12 N2          5.2804    -6.2467    95.6856 N.am       1          -0.7373
     13 C7          3.9839    -6.1075    95.0177 C.3        1           0.1530
     14 C8          3.7145    -4.6254    94.6466 C.3        1          -0.1601
     15 C9          2.7523    -4.7745    93.4416 C.3        1          -0.0091
     16 N3          3.2480    -5.9579    92.7069 N.4        1          -0.3876
     17 H1          3.8547    -5.6623    91.9568 H          1           0.4285
     18 C10         2.1121    -6.7105    92.1581 C.3        1          -0.0107
     19 C11         2.5982    -7.6088    91.0188 C.3        1          -0.1471
     20 C12         3.2179    -6.7461    89.9179 C.3        1          -0.1154
     21 C13         3.7039    -7.6444    88.7788 C.3        1          -0.1322
     22 C14         4.3238    -6.7816    87.6777 C.3        1           0.1190
     23 N4          5.4567    -6.0310    88.2252 N.am       1          -0.7322
     24 C15         6.4944    -5.7024    87.4304 C.2        1           0.5379
     25 O2          6.4903    -6.0280    86.2621 O.2        1          -0.5140
     26 C16         7.6596    -4.9303    87.9934 C.3        1          -0.1855
     27 C17         9.0145    -5.0913    87.3010 C.3        1          -0.1428
     28 C18         8.7749    -5.7289    88.6711 C.3        1          -0.0809
     29 C19         8.6241    -7.2275    88.7243 C.ar       1          -0.0343
     30 C20         9.1247    -8.0091    87.6996 C.ar       1          -0.0412
     31 C21         8.9870    -9.3834    87.7471 C.ar       1          -0.1051
     32 C22         8.3484    -9.9780    88.8209 C.ar       1          -0.0271
     33 Cl1         8.1757   -11.7042    88.8814 Cl         1          -0.0525
     34 C23         7.8477    -9.1953    89.8472 C.ar       1          -0.0366
     35 Cl2         7.0467    -9.9397    91.1955 Cl         1          -0.0511
     36 C24         7.9906    -7.8200    89.8002 C.ar       1          -0.0902
     37 C25         3.9987    -6.8125    93.6451 C.3        1          -0.0210
     38 C26         7.0375    -9.9771    96.2528 C.ar       1          -0.1440
     39 C27         7.5076   -11.2270    96.6056 C.ar       1          -0.0457
     40 H2          9.3252   -10.3844    99.3214 H          1           0.1428
     41 H3          8.5009    -8.1514    98.6961 H          1           0.1457
     42 H4          7.4584    -6.8094    96.8388 H          1           0.4134
     43 H5          5.8131    -5.4596    95.8793 H          1           0.4056
     44 H6          3.1845    -6.5018    95.6449 H          1           0.1310
     45 H7          3.2311    -4.0985    95.4692 H          1           0.1245
     46 H8          4.6356    -4.1233    94.3508 H          1           0.1026
     47 H9          1.7329    -4.9428    93.7888 H          1           0.1379
     48 H10         2.7970    -3.8886    92.8083 H          1           0.1395
     49 H11         1.6705    -7.3253    92.9423 H          1           0.1327
     50 H12         1.3646    -6.0143    91.7779 H          1           0.1330
     51 H13         3.3457    -8.3052    91.3990 H          1           0.0884
     52 H14         1.7553    -8.1673    90.6116 H          1           0.0879
     53 H15         2.4705    -6.0497    89.5379 H          1           0.0787
     54 H16         4.0609    -6.1877    90.3251 H          1           0.0788
     55 H17         4.4514    -8.3408    89.1587 H          1           0.0742
     56 H18         2.8610    -8.2028    88.3715 H          1           0.0740
     57 H19         4.6699    -7.4214    86.8662 H          1           0.0691
     58 H20         3.5762    -6.0851    87.2978 H          1           0.0690
     59 H21         5.4599    -5.7707    89.1596 H          1           0.4010
     60 H22         7.4189    -3.9512    88.4074 H          1           0.1308
     61 H23         9.0630    -5.7556    86.4383 H          1           0.1056
     62 H24         9.6653    -4.2180    87.2593 H          1           0.1160
     63 H25         9.2682    -5.2752    89.5306 H          1           0.1297
     64 H26         9.6231    -7.5454    86.8612 H          1           0.1259
     65 H27         9.3775    -9.9933    86.9460 H          1           0.1368
     66 H28         7.6038    -7.2092    90.6025 H          1           0.1383
     67 H29         5.0258    -6.9294    93.2993 H          1           0.1368
     68 H30         3.5184    -7.7878    93.7239 H          1           0.1449
     69 H31         6.3956    -9.8642    95.3916 H          1           0.1400
     70 H32         7.2331   -12.0917    96.0196 H          1           0.1449
@<TRIPOS>BOND
     1    1    2 1
     2    2    3 1
     3    2    4 1
     4    2    5 1
     5    5   39 ar
     6    5    6 ar
     7    6    7 ar
     8    6   40 1
     9    7    8 ar
    10    7   41 1
    11    8    9 1
    12    8   38 ar
    13    9   10 am
    14    9   42 1
    15   10   11 2
    16   10   12 am
    17   12   13 1
    18   12   43 1
    19   13   37 1
    20   13   14 1
    21   13   44 1
    22   14   15 1
    23   14   45 1
    24   14   46 1
    25   15   16 1
    26   15   47 1
    27   15   48 1
    28   16   17 1
    29   16   18 1
    30   16   37 1
    31   18   19 1
    32   18   49 1
    33   18   50 1
    34   19   20 1
    35   19   51 1
    36   19   52 1
    37   20   21 1
    38   20   53 1
    39   20   54 1
    40   21   22 1
    41   21   55 1
    42   21   56 1
    43   22   23 1
    44   22   57 1
    45   22   58 1
    46   23   24 am
    47   23   59 1
    48   24   25 2
    49   24   26 1
    50   26   28 1
    51   26   27 1
    52   26   60 1
    53   27   28 1
    54   27   61 1
    55   27   62 1
    56   28   29 1
    57   28   63 1
    58   29   36 ar
    59   29   30 ar
    60   30   31 ar
    61   30   64 1
    62   31   32 ar
    63   31   65 1
    64   32   33 1
    65   32   34 ar
    66   34   35 1
    67   34   36 ar
    68   36   66 1
    69   37   67 1
    70   37   68 1
    71   38   39 ar
    72   38   69 1
    73   39   70 1
##########                 Name:              T532634
##########          Protonation:                   23
##########               SMILES:   c1ccc(cc1)c2c(cccc2)CNc3nc([nH+]c(n3)NCCCc4ccc(cc4)O)N5CC[C@@H](CC5)[NH3+]
##########            Long Name:   [(2-phenylphenyl)methylamino]-1,3,5-triazin-1-ium-2-yl]-4-piperidyl]ammonium
##########          FlexRecCode: 1
##########               Number:                  243
##########   Ligand Source File: /raidb/db2/rgc/tcams/tcams-0001016.db2.gz
##########           GlobalRank: 114
##########                 Rank:                    1
##########               Setnum:                  365
##########             Matchnum:                 4371
##########                Cloud:                    1
##########        Electrostatic:           -48.209766
##########        Van der Waals:           -31.404894
##########  Ligand Polar Desolv:            16.773880
########## Ligand Apolar Desolv:            -4.942277
##########      Internal Energy:             0.000000
##########      Receptor Energy: 0.0
########## Receptor Desolvation:             0.000000
########## Receptor Hydrophobic:             0.000000
##########         Total Energy: -67.78
##########        Ligand Charge:             2.000000
##########            Arbitrary:    +999.9990
##########     heavy atom count:   38
##########           pose count:    1
##########        Ligand Energy:             0.000000
# num electro vdwattr vdwrepu polsolv apolsol rdesolv rhydroe totalscore fullpol fullapo
#   1   12.27   -1.37    0.68  -10.79    0.25    0.00    0.00       1.04  -31.50    0.74
#   2   -2.22   -0.01    0.00    3.92    0.09    0.00    0.00       1.78   24.45    0.58
#   3   -7.70   -0.02    0.00    6.00    0.15    0.00    0.00      -1.58   23.25    0.58
#   4  -16.01   -0.12    0.03    8.33    0.20    0.00    0.00      -7.56   23.71    0.58
#   5   -0.50   -0.59    0.04    0.90   -0.09    0.00    0.00      -0.23    2.88   -0.29
#   6    5.10   -1.22    0.31   -2.66   -0.10    0.00    0.00       1.43   -6.53   -0.24
#   7   -3.81   -1.17    0.30    1.32   -0.18    0.00    0.00      -3.54    3.61   -0.48
#   8   13.14   -0.81    0.08   -4.82    0.40    0.00    0.00       7.99  -20.17    1.68
#   9   -1.41   -0.22    0.01    0.40   -0.06    0.00    0.00      -1.29    2.99   -0.47
#  10    1.93   -0.26    0.01   -1.15   -0.04    0.00    0.00       0.48   -7.25   -0.24
#  11  -19.15   -1.21    0.32    5.71   -1.16    0.00    0.00     -15.50   22.86   -4.66
#  12   14.16   -0.72    0.08   -4.08    0.40    0.00    0.00       9.84  -18.90    1.84
#  13  -15.77   -0.72    0.11    3.62   -0.99    0.00    0.00     -13.76   17.56   -4.81
#  14    9.05   -0.58    0.03   -3.41    0.38    0.00    0.00       5.47  -15.64    1.73
#  15   -1.30   -0.62    0.14    0.91   -0.09    0.00    0.00      -0.95    4.05   -0.39
#  16    0.71   -1.42    0.58   -0.48   -0.11    0.00    0.00      -0.72   -1.65   -0.37
#  17    0.38   -1.38    0.34   -0.51   -0.14    0.00    0.00      -1.31   -1.69   -0.45
#  18    0.62   -1.31    0.14   -0.79   -0.17    0.00    0.00      -1.50   -2.23   -0.47
#  19    0.63   -2.01    0.66   -0.78   -0.19    0.00    0.00      -1.68   -1.96   -0.47
#  20    0.86   -2.13    0.65   -0.86   -0.20    0.00    0.00      -1.67   -2.02   -0.46
#  21    0.21   -1.37    0.24   -0.22   -0.13    0.00    0.00      -1.28   -0.63   -0.38
#  22    0.79   -1.19    0.10   -0.29   -0.13    0.00    0.00      -0.72   -0.79   -0.35
#  23    2.46   -1.71    0.50   -0.79   -0.19    0.00    0.00       0.26   -1.91   -0.46
#  24    3.23   -3.63    2.81   -1.04   -0.22    0.00    0.00       1.15   -2.20   -0.47
#  25    3.05   -3.01    1.41   -1.12   -0.23    0.00    0.00       0.10   -2.32   -0.47
#  26    2.53   -1.71    0.27   -1.06   -0.23    0.00    0.00      -0.21   -2.21   -0.47
#  27    1.32   -1.71    0.34   -0.82   -0.16    0.00    0.00      -1.02   -1.91   -0.37
#  28   17.53   -1.07    0.29   -4.15    0.45    0.00    0.00      13.04  -18.26    1.96
#  29  -25.12   -2.57    1.99    6.83   -1.50    0.00    0.00     -20.37   21.85   -4.81
#  30   22.68   -4.07    3.67   -8.08    0.66    0.00    0.00      14.86  -21.21    1.73
#  31   -1.75   -1.49    1.03    1.02   -0.12    0.00    0.00      -1.32    3.27   -0.38
#  32    0.92   -0.86    0.52   -0.85   -0.05    0.00    0.00      -0.32   -3.73   -0.22
#  33    0.62   -0.45    0.04   -0.43   -0.05    0.00    0.00      -0.27   -1.89   -0.23
#  34    0.35   -0.66    0.06   -0.38   -0.09    0.00    0.00      -0.72   -1.61   -0.36
#  35    0.20   -0.51    0.04   -0.32   -0.08    0.00    0.00      -0.67   -1.83   -0.46
#  36    0.26   -0.56    0.07   -0.43   -0.08    0.00    0.00      -0.74   -2.42   -0.46
#  37   -0.21   -0.92    0.22    0.04   -0.08    0.00    0.00      -0.94    0.16   -0.31
#  38    0.74   -0.82    0.25   -1.13    0.29    0.00    0.00      -0.67   -4.55    1.19
#  39    0.23   -1.40    0.42   -0.79   -0.15    0.00    0.00      -1.70   -2.38   -0.46
#  40    0.42   -1.16    0.24   -0.59   -0.15    0.00    0.00      -1.24   -1.85   -0.46
#  41   22.92   -2.84    2.00   -6.95    0.32    0.00    0.00      15.45  -21.37    0.99
#  42  -17.00   -0.06    0.00    6.42    0.11    0.00    0.00     -10.53   18.72    0.31
#  43   -3.17   -0.21    0.02    1.90   -0.06    0.00    0.00      -1.52    8.39   -0.28
#  44   -3.06   -0.70    0.89    1.33   -0.10    0.00    0.00      -1.64    3.76   -0.28
#  45   -4.47   -0.58    0.22    2.39   -0.12    0.00    0.00      -2.57    5.39   -0.28
#  46   -6.14   -1.03    1.01    0.86   -0.10    0.00    0.00      -5.40    2.07   -0.24
#  47   -2.35   -0.24    0.03    0.99   -0.07    0.00    0.00      -1.64    4.12   -0.28
#  48   -1.04   -0.04    0.00    0.20   -0.01    0.00    0.00      -0.88    5.22   -0.20
#  49   -1.06   -0.07    0.00    0.39   -0.02    0.00    0.00      -0.75    5.77   -0.28
#  50   -0.47   -0.05    0.00    0.33   -0.01    0.00    0.00      -0.20    7.50   -0.28
#  51   -1.37   -0.10    0.00    0.43   -0.03    0.00    0.00      -1.06    4.62   -0.28
#  52   -5.16   -0.01    0.00    1.04    0.06    0.00    0.00      -4.07    9.98    0.58
#  53   -1.69   -0.11    0.01    0.20   -0.02    0.00    0.00      -1.61    1.87   -0.18
#  54    0.18   -0.40    0.29    0.47   -0.05    0.00    0.00       0.48    2.46   -0.27
#  55   -0.54   -0.20    0.03    0.57   -0.05    0.00    0.00      -0.19    3.51   -0.28
#  56   -0.89   -0.20    0.01    0.43   -0.06    0.00    0.00      -0.70    2.17   -0.28
#  57   -1.12   -0.56    0.46    0.48   -0.09    0.00    0.00      -0.82    1.59   -0.28
#  58   -1.44   -0.58    0.26    0.55   -0.11    0.00    0.00      -1.32    1.39   -0.28
#  59   -3.27   -0.32    0.07    0.70   -0.09    0.00    0.00      -2.91    2.14   -0.28
#  60   -4.03   -1.28    1.80    1.22   -0.14    0.00    0.00      -2.43    2.46   -0.28
#  61   -3.27   -1.18    1.29    1.19   -0.14    0.00    0.00      -2.11    2.45   -0.28
#  62   -3.31   -0.41    0.09    1.14   -0.12    0.00    0.00      -2.61    2.66   -0.28
#  63   -0.34   -0.69    0.45    0.93   -0.09    0.00    0.00       0.25    2.49   -0.25
#  64  -19.64   -0.15    0.02    6.69    0.29    0.00    0.00     -12.79   13.29    0.58
#  65   -1.93   -0.15    0.01    0.84   -0.04    0.00    0.00      -1.28    5.15   -0.27
#  66   -1.52   -1.10    2.02    1.96   -0.09    0.00    0.00       1.27    5.79   -0.28
#  67   -0.16   -0.77    2.05    0.41   -0.06    0.00    0.00       1.47    1.91   -0.28
#  68   -0.53   -0.08    0.00    0.14   -0.02    0.00    0.00      -0.50    1.65   -0.28
#  69   -0.85   -0.09    0.00    0.29   -0.02    0.00    0.00      -0.67    3.36   -0.28
#  70   -1.05   -0.18    0.02    0.64   -0.05    0.00    0.00      -0.61    3.70   -0.28
#  71   -0.23   -0.07    0.00    0.25   -0.02    0.00    0.00      -0.06    3.82   -0.28
#  72   -0.19   -0.06    0.00    0.08   -0.02    0.00    0.00      -0.19    1.31   -0.28
#  73   -0.52   -0.01    0.00    0.58    0.14    0.00    0.00       0.19    5.11    1.22
#  74   -0.18   -0.60    0.57    0.44   -0.11    0.00    0.00       0.12    1.17   -0.28
#  75   -0.73   -0.44    0.30    1.06   -0.09    0.00    0.00       0.11    3.50   -0.28

@<TRIPOS>MOLECULE
          T532634        23
   75    79     0     0     0



@<TRIPOS>ATOM
      1 N1         11.5098    -5.7805    87.4056 N.4        1          -0.6362
      2 H1         11.9472    -6.5777    86.9683 H          1           0.4418
      3 H2         11.8526    -5.6846    88.3497 H          1           0.4362
      4 H3         11.7298    -4.9468    86.8817 H          1           0.4437
      5 C1         10.0539    -5.9733    87.4307 C.3        1           0.0246
      6 C2          9.3906    -4.7633    88.0926 C.3        1          -0.1633
      7 C3          7.8703    -4.9519    88.0858 C.3        1           0.1234
      8 N2          7.5506    -6.2376    88.7209 N.pl3      1          -0.5765
      9 C4          8.2040    -7.4547    88.2201 C.3        1           0.1075
     10 C5          9.7206    -7.2379    88.2254 C.3        1          -0.1622
     11 C6          6.6539    -6.3011    89.7680 C.ar       1           0.6928
     12 N3          6.7876    -7.2379    90.7018 N.ar       1          -0.6136
     13 C7          5.9239    -7.2991    91.7103 C.ar       1           0.6773
     14 N4          6.0630    -8.2713    92.6799 N.pl3      1          -0.6167
     15 C8          5.1110    -8.3387    93.7915 C.3        1           0.1549
     16 C9          5.8014    -8.8927    95.0112 C.ar       1          -0.1251
     17 C10         6.6251    -9.9946    94.8988 C.ar       1          -0.0902
     18 C11         7.2592   -10.5041    96.0172 C.ar       1          -0.1150
     19 C12         7.0725    -9.9129    97.2539 C.ar       1          -0.0917
     20 C13         6.2516    -8.8105    97.3777 C.ar       1          -0.1047
     21 C14         5.6139    -8.2901    96.2532 C.ar       1          -0.0248
     22 C15         4.7340    -7.1019    96.3792 C.ar       1          -0.0552
     23 C16         5.2618    -5.8215    96.2256 C.ar       1          -0.1047
     24 C17         4.4388    -4.7199    96.3434 C.ar       1          -0.1152
     25 C18         3.0922    -4.8852    96.6133 C.ar       1          -0.1153
     26 C19         2.5631    -6.1539    96.7672 C.ar       1          -0.1170
     27 C20         3.3759    -7.2628    96.6458 C.ar       1          -0.1090
     28 N5          4.9262    -6.4235    91.7852 N.ar       1          -0.6076
     29 C21         4.7926    -5.4869    90.8515 C.ar       1           0.6919
     30 N6          3.7570    -4.5778    90.9293 N.pl3      1          -0.6562
     31 C22         2.5778    -4.8789    91.7447 C.3        1           0.0885
     32 C23         1.5373    -5.6038    90.8885 C.3        1          -0.1299
     33 C24         0.3057    -5.9183    91.7400 C.3        1          -0.0696
     34 C25        -0.7191    -6.6323    90.8967 C.ar       1          -0.1110
     35 C26        -0.7072    -8.0126    90.8174 C.ar       1          -0.0973
     36 C27        -1.6455    -8.6694    90.0451 C.ar       1          -0.1430
     37 C28        -2.6006    -7.9428    89.3489 C.ar       1           0.1160
     38 O1         -3.5250    -8.5866    88.5888 O.3        1          -0.4978
     39 C29        -2.6106    -6.5580    89.4305 C.ar       1          -0.1424
     40 C30        -1.6731    -5.9061    90.2080 C.ar       1          -0.0967
     41 N7          5.6597    -5.4222    89.8458 N.ar       1          -0.6382
     42 H4          5.5645    -4.7363    89.1666 H          1           0.4323
     43 H5          9.6837    -6.0772    86.4106 H          1           0.1526
     44 H6          9.7415    -4.6732    89.1206 H          1           0.0997
     45 H7          9.6475    -3.8597    87.5395 H          1           0.1188
     46 H8          7.3991    -4.1421    88.6427 H          1           0.1335
     47 H9          7.5066    -4.9515    87.0582 H          1           0.1042
     48 H10         7.9529    -8.2963    88.8658 H          1           0.0958
     49 H11         7.8676    -7.6583    87.2036 H          1           0.1159
     50 H12        10.2122    -8.0959    87.7669 H          1           0.1201
     51 H13        10.0682    -7.1246    89.2522 H          1           0.1003
     52 H14         6.7910    -8.9098    92.6255 H          1           0.4323
     53 H15         4.7354    -7.3390    94.0092 H          1           0.1065
     54 H16         4.2792    -8.9879    93.5185 H          1           0.0963
     55 H17         6.7743   -10.4600    93.9356 H          1           0.1291
     56 H18         7.9023   -11.3668    95.9248 H          1           0.1329
     57 H19         7.5699   -10.3150    98.1242 H          1           0.1342
     58 H20         6.1062    -8.3501    98.3437 H          1           0.1316
     59 H21         6.3130    -5.6913    96.0152 H          1           0.1253
     60 H22         4.8468    -3.7270    96.2250 H          1           0.1264
     61 H23         2.4518    -4.0204    96.7048 H          1           0.1240
     62 H24         1.5111    -6.2772    96.9782 H          1           0.1247
     63 H25         2.9608    -8.2530    96.7616 H          1           0.1252
     64 H26         3.8101    -3.7394    90.4443 H          1           0.4475
     65 H27         2.8672    -5.5154    92.5811 H          1           0.0874
     66 H28         2.1522    -3.9504    92.1250 H          1           0.0853
     67 H29         1.2479    -4.9674    90.0522 H          1           0.0871
     68 H30         1.9629    -6.5324    90.5081 H          1           0.0878
     69 H31         0.5950    -6.5547    92.5763 H          1           0.0790
     70 H32        -0.1199    -4.9896    92.1203 H          1           0.0779
     71 H33         0.0365    -8.5778    91.3596 H          1           0.1251
     72 H34        -1.6353    -9.7476    89.9829 H          1           0.1326
     73 H35        -3.4375    -9.5497    88.5950 H          1           0.3972
     74 H36        -3.3529    -5.9901    88.8892 H          1           0.1329
     75 H37        -1.6830    -4.8282    90.2751 H          1           0.1259
@<TRIPOS>BOND
     1    1    2 1
     2    1    3 1
     3    1    4 1
     4    1    5 1
     5    5   10 1
     6    5    6 1
     7    5   43 1
     8    6    7 1
     9    6   44 1
    10    6   45 1
    11    7    8 1
    12    7   46 1
    13    7   47 1
    14    8    9 1
    15    8   11 1
    16    9   10 1
    17    9   48 1
    18    9   49 1
    19   10   50 1
    20   10   51 1
    21   11   41 ar
    22   11   12 ar
    23   12   13 ar
    24   13   14 1
    25   13   28 ar
    26   14   15 1
    27   14   52 1
    28   15   16 1
    29   15   53 1
    30   15   54 1
    31   16   21 ar
    32   16   17 ar
    33   17   18 ar
    34   17   55 1
    35   18   19 ar
    36   18   56 1
    37   19   20 ar
    38   19   57 1
    39   20   21 ar
    40   20   58 1
    41   21   22 1
    42   22   27 ar
    43   22   23 ar
    44   23   24 ar
    45   23   59 1
    46   24   25 ar
    47   24   60 1
    48   25   26 ar
    49   25   61 1
    50   26   27 ar
    51   26   62 1
    52   27   63 1
    53   28   29 ar
    54   29   30 1
    55   29   41 ar
    56   30   31 1
    57   30   64 1
    58   31   32 1
    59   31   65 1
    60   31   66 1
    61   32   33 1
    62   32   67 1
    63   32   68 1
    64   33   34 1
    65   33   69 1
    66   33   70 1
    67   34   40 ar
    68   34   35 ar
    69   35   36 ar
    70   35   71 1
    71   36   37 ar
    72   36   72 1
    73   37   38 1
    74   37   39 ar
    75   38   73 1
    76   39   40 ar
    77   39   74 1
    78   40   75 1
    79   41   42 1
##########                 Name:              T526069
##########          Protonation:                   11
##########               SMILES:   Cc1cc(nc([nH+]1)Nc2ccccc2)N[C@H](Cc3ccccc3)C(=O)NCc4cccc(c4)F
##########            Long Name:   -pyrimidin-1-ium-4-yl)amino]-N-[(3-fluorophenyl)methyl]-3-phenyl-propanamide
##########          FlexRecCode: 1
##########               Number:                  250
##########   Ligand Source File: /raidb/db2/rgc/tcams/tcams-0000096.db2.gz
##########           GlobalRank: 115
##########                 Rank:                    1
##########               Setnum:                  296
##########             Matchnum:                 4340
##########                Cloud:                    1
##########        Electrostatic:           -33.514191
##########        Van der Waals:           -34.049976
##########  Ligand Polar Desolv:             4.320599
########## Ligand Apolar Desolv:            -4.480545
##########      Internal Energy:             0.000000
##########      Receptor Energy: 0.0
########## Receptor Desolvation:             0.000000
########## Receptor Hydrophobic:             0.000000
##########         Total Energy: -67.72
##########        Ligand Charge:             1.000000
##########            Arbitrary:    +999.9990
##########     heavy atom count:   34
##########           pose count:    1
##########        Ligand Energy:             0.000000
# num electro vdwattr vdwrepu polsolv apolsol rdesolv rhydroe totalscore fullpol fullapo
#   1    0.84   -0.45    0.05   -0.83   -0.04    0.00    0.00      -0.44   -3.79   -0.20
#   2   -3.11   -0.67    0.04    1.50   -0.17    0.00    0.00      -2.41    6.43   -0.72
#   3    3.99   -0.58    0.03   -1.24   -0.05    0.00    0.00       2.14   -6.08   -0.27
#   4  -13.08   -1.07    0.14    2.69   -0.49    0.00    0.00     -11.81    9.08   -1.64
#   5   22.13   -1.44    0.42   -3.21    0.43    0.00    0.00      18.32  -10.74    1.43
#   6   -2.92   -0.47    0.05    0.60   -0.06    0.00    0.00      -2.80    2.75   -0.26
#   7    2.68   -0.72    0.14   -0.46   -0.06    0.00    0.00       1.57   -1.66   -0.22
#   8    1.31   -0.92    0.10   -0.43   -0.06    0.00    0.00       0.01   -1.56   -0.21
#   9    0.96   -1.20    0.21   -0.67   -0.10    0.00    0.00      -0.79   -2.11   -0.31
#  10    0.32   -2.05    0.75   -0.84   -0.16    0.00    0.00      -1.98   -2.31   -0.44
#  11    0.41   -1.49    0.30   -0.72   -0.15    0.00    0.00      -1.65   -2.14   -0.44
#  12    0.75   -1.08    0.22   -0.59   -0.10    0.00    0.00      -0.80   -2.27   -0.38
#  13    1.30   -1.12    0.32   -0.56   -0.09    0.00    0.00      -0.15   -2.22   -0.37
#  14   -9.91   -0.53    0.04    1.25   -0.11    0.00    0.00      -9.26    7.13   -0.60
#  15    4.68   -0.30    0.01   -0.69    0.05    0.00    0.00       3.75   -5.14    0.38
#  16   19.63   -1.03    0.25   -2.37    0.51    0.00    0.00      17.00  -10.63    2.28
#  17   -2.75   -0.28    0.01    0.33   -0.07    0.00    0.00      -2.75    2.10   -0.44
#  18    1.78   -0.56    0.04   -0.15   -0.07    0.00    0.00       1.04   -0.77   -0.37
#  19    2.81   -1.13    0.18   -0.34   -0.13    0.00    0.00       1.40   -1.19   -0.45
#  20    2.32   -1.12    0.14   -0.35   -0.16    0.00    0.00       0.83   -1.01   -0.47
#  21    2.50   -0.69    0.04   -0.34   -0.12    0.00    0.00       1.39   -1.34   -0.47
#  22   -1.22   -0.41    0.01    0.03   -0.05    0.00    0.00      -1.64    0.20   -0.34
#  23    0.80   -0.16    0.00   -0.08   -0.06    0.00    0.00       0.50   -0.70   -0.48
#  24    1.92   -0.38    0.01   -0.20   -0.07    0.00    0.00       1.29   -1.28   -0.46
#  25   14.56   -2.17    0.90   -4.03    0.58    0.00    0.00       9.85  -10.26    1.49
#  26  -14.02   -2.08    0.65    5.15   -1.85    0.00    0.00     -12.15   12.86   -4.62
#  27   14.43   -5.36    5.29   -5.89    0.53    0.00    0.00       9.00  -11.77    1.06
#  28   -2.87   -4.26    4.30    1.19   -0.37    0.00    0.00      -2.00    2.18   -0.67
#  29    2.27   -3.31    1.02   -0.79   -0.24    0.00    0.00      -1.05   -1.33   -0.40
#  30    2.35   -2.96    0.61   -0.85   -0.31    0.00    0.00      -1.16   -1.29   -0.47
#  31    2.55   -3.30    1.12   -1.02   -0.32    0.00    0.00      -0.97   -1.47   -0.47
#  32    2.39   -3.41    0.93   -0.89   -0.30    0.00    0.00      -1.28   -1.37   -0.47
#  33    3.00   -4.44    4.00   -1.05   -0.27    0.00    0.00       1.24   -1.77   -0.46
#  34   10.48   -1.05    0.09   -4.37    0.33    0.00    0.00       5.49  -12.67    0.97
#  35   -9.06   -0.01    0.00    2.77    0.12    0.00    0.00      -6.19   13.23    0.58
#  36   -0.25   -0.07    0.00    0.25   -0.02    0.00    0.00      -0.09    3.67   -0.28
#  37   -0.79   -0.33    0.20    0.60   -0.04    0.00    0.00      -0.37    2.89   -0.20
#  38   -0.53   -0.13    0.01    0.51   -0.04    0.00    0.00      -0.18    3.62   -0.28
#  39   -1.94   -0.07    0.00    0.28   -0.01    0.00    0.00      -1.73    4.61   -0.13
#  40  -22.33   -0.07    0.01    1.62    0.16    0.00    0.00     -20.61    5.28    0.53
#  41   -1.65   -0.11    0.01    0.41   -0.02    0.00    0.00      -1.36    4.01   -0.22
#  42   -3.89   -0.44    0.27    0.77   -0.07    0.00    0.00      -3.35    2.92   -0.25
#  43   -2.96   -0.21    0.02    0.20   -0.06    0.00    0.00      -3.01    0.99   -0.28
#  44   -1.29   -0.21    0.01    0.23   -0.06    0.00    0.00      -1.30    1.13   -0.28
#  45    0.01   -0.77    0.42    0.64   -0.11    0.00    0.00       0.19    1.67   -0.28
#  46   -0.47   -0.30    0.04    0.71   -0.08    0.00    0.00      -0.10    2.61   -0.28
#  47   -0.93   -0.16    0.02    0.42   -0.04    0.00    0.00      -0.69    3.15   -0.28
#  48   -1.82   -0.20    0.05    0.57   -0.04    0.00    0.00      -1.44    3.82   -0.28
#  49  -17.65   -0.06    0.01    2.01    0.13    0.00    0.00     -15.56    8.14    0.53
#  50   -0.92   -0.04    0.00    0.03   -0.01    0.00    0.00      -0.94    0.69   -0.28
#  51   -1.14   -0.08    0.00    0.08   -0.02    0.00    0.00      -1.16    0.93   -0.28
#  52   -3.84   -0.39    0.14    0.65   -0.07    0.00    0.00      -3.52    2.48   -0.28
#  53   -4.60   -0.31    0.03    0.73   -0.10    0.00    0.00      -4.24    2.08   -0.28
#  54   -2.37   -0.15    0.01    0.18   -0.05    0.00    0.00      -2.37    1.08   -0.28
#  55   -1.51   -0.05    0.00    0.08   -0.01    0.00    0.00      -1.50    1.56   -0.28
#  56  -10.62   -0.19    0.03    6.11    0.34    0.00    0.00      -4.34   10.74    0.59
#  57   -2.93   -0.94    0.45    0.90   -0.13    0.00    0.00      -2.65    1.62   -0.23
#  58   -3.12   -0.81    0.29    0.69   -0.17    0.00    0.00      -3.11    1.12   -0.28
#  59   -3.16   -1.19    1.63    0.62   -0.17    0.00    0.00      -2.28    1.04   -0.28
#  60   -3.38   -0.88    0.34    1.04   -0.19    0.00    0.00      -3.07    1.56   -0.28
#  61   -3.66   -1.11    1.00    1.42   -0.14    0.00    0.00      -2.49    2.76   -0.28

@<TRIPOS>MOLECULE
          T526069        11
   61    64     0     0     0



@<TRIPOS>ATOM
      1 C1         -0.3024    -6.8456    91.8862 C.3        1          -0.1432
      2 C2          0.6623    -5.8548    92.4850 C.ar       1           0.2382
      3 C3          2.0180    -6.1202    92.4969 C.ar       1          -0.2687
      4 C4          2.8768    -5.1749    93.0618 C.ar       1           0.5295
      5 N1          4.2436    -5.3985    93.0951 N.pl3      1          -0.6420
      6 C5          4.7602    -6.7669    93.1773 C.3        1           0.1249
      7 C6          6.0978    -6.7632    93.9204 C.3        1          -0.0981
      8 C7          6.3898    -8.1488    94.4360 C.ar       1          -0.0923
      9 C8          5.9508    -8.5259    95.6914 C.ar       1          -0.1143
     10 C9          6.2187    -9.7968    96.1644 C.ar       1          -0.1204
     11 C10         6.9252   -10.6909    95.3818 C.ar       1          -0.1142
     12 C11         7.3634   -10.3142    94.1261 C.ar       1          -0.1142
     13 C12         7.0918    -9.0446    93.6514 C.ar       1          -0.1166
     14 C13         4.9595    -7.3131    91.7870 C.2        1           0.5127
     15 O1          4.3605    -8.3069    91.4343 O.2        1          -0.5174
     16 N2          5.8032    -6.6970    90.9355 N.am       1          -0.7126
     17 C14         5.9968    -7.2279    89.5839 C.3        1           0.1617
     18 C15         7.3926    -6.9084    89.1138 C.ar       1          -0.0913
     19 C16         7.6415    -5.7262    88.4414 C.ar       1          -0.1098
     20 C17         8.9211    -5.4320    88.0092 C.ar       1          -0.0881
     21 C18         9.9534    -6.3192    88.2494 C.ar       1          -0.1398
     22 C19         9.7053    -7.5029    88.9231 C.ar       1           0.1011
     23 F1         10.7136    -8.3708    89.1583 F          1          -0.1341
     24 C20         8.4241    -7.7935    89.3597 C.ar       1          -0.1355
     25 N3          2.3637    -4.0574    93.5664 N.ar       1          -0.5596
     26 C21         1.0575    -3.8409    93.5354 C.ar       1           0.6552
     27 N4          0.5549    -2.6657    94.0694 N.pl3      1          -0.6180
     28 C22        -0.8212    -2.4195    94.0459 C.ar       1           0.1201
     29 C23        -1.3931    -1.7666    92.9613 C.ar       1          -0.0974
     30 C24        -2.7526    -1.5255    92.9410 C.ar       1          -0.1001
     31 C25        -3.5445    -1.9326    93.9990 C.ar       1          -0.1072
     32 C26        -2.9784    -2.5821    95.0805 C.ar       1          -0.0980
     33 C27        -1.6203    -2.8320    95.1043 C.ar       1          -0.1218
     34 N5          0.2199    -4.7175    93.0008 N.ar       1          -0.5697
     35 H1         -0.7308    -4.5258    92.9908 H          1           0.4391
     36 H2          0.2479    -7.7111    91.5173 H          1           0.1168
     37 H3         -1.0144    -7.1651    92.6471 H          1           0.1168
     38 H4         -0.8386    -6.3771    91.0608 H          1           0.0998
     39 H5          2.4047    -7.0380    92.0792 H          1           0.1834
     40 H6          4.8585    -4.6491    93.0641 H          1           0.4346
     41 H7          4.0477    -7.3926    93.7149 H          1           0.1260
     42 H8          6.8908    -6.4543    93.2394 H          1           0.1063
     43 H9          6.0462    -6.0674    94.7577 H          1           0.0976
     44 H10         5.3988    -7.8274    96.3028 H          1           0.1190
     45 H11         5.8763   -10.0912    97.1455 H          1           0.1203
     46 H12         7.1351   -11.6837    95.7517 H          1           0.1274
     47 H13         7.9157   -11.0126    93.5149 H          1           0.1326
     48 H14         7.4310    -8.7514    92.6688 H          1           0.1321
     49 H15         6.2823    -5.9022    91.2176 H          1           0.4068
     50 H16         5.8556    -8.3087    89.5943 H          1           0.0867
     51 H17         5.2728    -6.7734    88.9078 H          1           0.0894
     52 H18         6.8356    -5.0324    88.2533 H          1           0.1332
     53 H19         9.1143    -4.5086    87.4834 H          1           0.1392
     54 H20        10.9530    -6.0892    87.9113 H          1           0.1409
     55 H21         8.2302    -8.7154    89.8894 H          1           0.1377
     56 H22         1.1577    -2.0137    94.4598 H          1           0.4328
     57 H23        -0.7750    -1.4479    92.1350 H          1           0.1284
     58 H24        -3.1979    -1.0180    92.0980 H          1           0.1338
     59 H25        -4.6075    -1.7422    93.9809 H          1           0.1333
     60 H26        -3.5995    -2.8981    95.9056 H          1           0.1362
     61 H27        -1.1794    -3.3435    95.9472 H          1           0.1309
@<TRIPOS>BOND
     1    1    2 1
     2    1   36 1
     3    1   37 1
     4    1   38 1
     5    2   34 ar
     6    2    3 ar
     7    3    4 ar
     8    3   39 1
     9    4    5 1
    10    4   25 ar
    11    5    6 1
    12    5   40 1
    13    6    7 1
    14    6   14 1
    15    6   41 1
    16    7    8 1
    17    7   42 1
    18    7   43 1
    19    8   13 ar
    20    8    9 ar
    21    9   10 ar
    22    9   44 1
    23   10   11 ar
    24   10   45 1
    25   11   12 ar
    26   11   46 1
    27   12   13 ar
    28   12   47 1
    29   13   48 1
    30   14   15 2
    31   14   16 am
    32   16   17 1
    33   16   49 1
    34   17   18 1
    35   17   50 1
    36   17   51 1
    37   18   24 ar
    38   18   19 ar
    39   19   20 ar
    40   19   52 1
    41   20   21 ar
    42   20   53 1
    43   21   22 ar
    44   21   54 1
    45   22   23 1
    46   22   24 ar
    47   24   55 1
    48   25   26 ar
    49   26   27 1
    50   26   34 ar
    51   27   28 1
    52   27   56 1
    53   28   33 ar
    54   28   29 ar
    55   29   30 ar
    56   29   57 1
    57   30   31 ar
    58   30   58 1
    59   31   32 ar
    60   31   59 1
    61   32   33 ar
    62   32   60 1
    63   33   61 1
    64   34   35 1
##########                 Name:              T527693
##########          Protonation:                   12
##########               SMILES:   CC(C)Nc1nc([nH+]c(n1)NCc2ccc(c(c2)Cl)Cl)NCCc3c[nH+]c[nH]3
##########            Long Name:   H-imidazol-3-ium-5-yl)ethyl]-N4-isopropyl-1,3,5-triazin-1-ium-2,4,6-triamine
##########          FlexRecCode: 1
##########               Number:                    2
##########   Ligand Source File: /raidb/db2/rgc/tcams/tcams-0000326.db2.gz
##########           GlobalRank: 117
##########                 Rank:                    1
##########               Setnum:                  109
##########             Matchnum:                 2211
##########                Cloud:                    1
##########        Electrostatic:           -67.164719
##########        Van der Waals:           -17.494556
##########  Ligand Polar Desolv:            19.958502
########## Ligand Apolar Desolv:            -3.010699
##########      Internal Energy:             0.000000
##########      Receptor Energy: 0.0
########## Receptor Desolvation:             0.000000
########## Receptor Hydrophobic:             0.000000
##########         Total Energy: -67.71
##########        Ligand Charge:             2.000000
##########            Arbitrary:    +999.9990
##########     heavy atom count:   28
##########           pose count:    1
##########        Ligand Energy:             0.000000
# num electro vdwattr vdwrepu polsolv apolsol rdesolv rhydroe totalscore fullpol fullapo
#   1    0.80   -0.23    0.01   -0.46   -0.03    0.00    0.00       0.09   -3.24   -0.19
#   2   -0.33   -0.17    0.01    0.35   -0.03    0.00    0.00      -0.16    3.66   -0.31
#   3    0.05   -0.20    0.02   -0.36   -0.02    0.00    0.00      -0.51   -3.39   -0.19
#   4    1.93   -0.55    0.11   -2.23    0.21    0.00    0.00      -0.53  -15.84    1.51
#   5   -6.44   -0.37    0.02    2.65   -0.72    0.00    0.00      -4.86   17.63   -4.80
#   6    8.41   -0.50    0.02   -3.88    0.42    0.00    0.00       4.47  -19.63    2.12
#   7  -19.38   -1.11    0.33    6.03   -1.19    0.00    0.00     -15.31   24.40   -4.81
#   8   24.10   -1.84    1.51   -6.85    0.48    0.00    0.00      17.39  -24.78    1.73
#   9   -2.20   -0.47    0.03    0.69   -0.09    0.00    0.00      -2.03    2.97   -0.37
#  10    2.08   -0.72    0.05   -1.00   -0.09    0.00    0.00       0.32   -2.75   -0.25
#  11   -1.03   -0.98    0.05    0.46   -0.24    0.00    0.00      -1.73    1.34   -0.70
#  12   -0.55   -1.55    0.17    0.05   -0.45    0.00    0.00      -2.32    0.11   -1.01
#  13   15.81   -2.89    2.47  -10.28    0.57    0.00    0.00       5.68  -20.66    1.15
#  14  -21.32   -0.13    0.04   10.57    0.31    0.00    0.00     -10.54   20.41    0.59
#  15   -9.93   -1.91    1.04    5.50   -1.30    0.00    0.00      -6.62   14.04   -3.33
#  16   11.30   -0.84    0.03   -6.97    0.37    0.00    0.00       3.89  -22.21    1.18
#  17   20.95   -2.03    1.18   -6.49    0.29    0.00    0.00      13.90  -22.51    0.99
#  18  -20.99   -0.11    0.02    7.66    0.13    0.00    0.00     -13.28   20.90    0.36
#  19  -14.12   -0.78    0.10    5.34   -1.08    0.00    0.00     -10.55   23.68   -4.81
#  20   12.55   -0.75    0.07   -5.14    0.39    0.00    0.00       7.12  -22.89    1.74
#  21   -1.49   -0.20    0.00    0.64   -0.05    0.00    0.00      -1.10    5.19   -0.39
#  22    0.84   -0.36    0.01   -0.26   -0.05    0.00    0.00       0.18   -1.95   -0.37
#  23    0.60   -0.59    0.03   -0.31   -0.10    0.00    0.00      -0.36   -1.33   -0.45
#  24    0.52   -0.96    0.19   -0.75   -0.12    0.00    0.00      -1.13   -2.82   -0.46
#  25    0.02   -0.57    0.03   -0.29   -0.07    0.00    0.00      -0.88   -1.28   -0.30
#  26    0.01   -1.34    0.18   -0.40   -0.22    0.00    0.00      -1.77   -1.71   -0.95
#  27    0.05   -0.46    0.02   -0.31   -0.06    0.00    0.00      -0.75   -1.62   -0.30
#  28   -0.04   -2.24    2.26   -0.36   -0.20    0.00    0.00      -0.57   -1.73   -0.95
#  29    0.29   -0.40    0.02   -0.27   -0.07    0.00    0.00      -0.44   -1.65   -0.45
#  30    7.34   -0.34    0.01   -2.65    0.26    0.00    0.00       4.63  -18.90    1.88
#  31   -0.46   -0.06    0.00    0.05   -0.01    0.00    0.00      -0.49    1.05   -0.28
#  32   -0.39   -0.12    0.01    0.17   -0.04    0.00    0.00      -0.37    1.35   -0.28
#  33   -0.25   -0.05    0.00    0.04   -0.01    0.00    0.00      -0.27    0.85   -0.28
#  34   -0.35   -0.02    0.00    0.06   -0.01    0.00    0.00      -0.32    2.20   -0.26
#  35   -0.02   -0.04    0.00    0.06   -0.01    0.00    0.00      -0.02    1.24   -0.28
#  36   -0.04   -0.03    0.00    0.03   -0.01    0.00    0.00      -0.04    1.24   -0.28
#  37   -0.01   -0.16    0.06    0.13   -0.03    0.00    0.00      -0.02    1.17   -0.28
#  38    0.16   -0.03    0.00    1.65    0.09    0.00    0.00       1.87   10.34    0.58
#  39  -22.82   -0.09    0.02    4.68    0.16    0.00    0.00     -18.05   16.86    0.58
#  40   -1.58   -0.09    0.00    0.61   -0.02    0.00    0.00      -1.09    6.99   -0.27
#  41   -1.44   -0.13    0.01    0.68   -0.03    0.00    0.00      -0.91    6.36   -0.27
#  42   -3.94   -0.29    0.02    1.45   -0.09    0.00    0.00      -2.84    4.52   -0.28
#  43   -4.61   -0.32    0.05    1.46   -0.08    0.00    0.00      -3.49    5.22   -0.28
#  44   -5.59   -0.42    0.08    4.28   -0.11    0.00    0.00      -1.76   10.45   -0.28
#  45   -9.92   -0.60    0.52    5.05   -0.10    0.00    0.00      -5.05   14.26   -0.28
#  46   -8.52   -0.01    0.00    2.76    0.08    0.00    0.00      -5.69   20.83    0.59
#  47  -10.93   -0.02    0.00    3.10    0.13    0.00    0.00      -7.72   13.99    0.58
#  48   -0.69   -0.04    0.00    0.30   -0.01    0.00    0.00      -0.44    7.19   -0.27
#  49   -0.91   -0.04    0.00    0.35   -0.01    0.00    0.00      -0.61    8.00   -0.27
#  50   -2.21   -0.14    0.01    1.15   -0.05    0.00    0.00      -1.24    6.97   -0.28
#  51   -1.94   -0.59    0.63    0.74   -0.07    0.00    0.00      -1.24    2.77   -0.28
#  52   -0.53   -0.10    0.01    0.47   -0.02    0.00    0.00      -0.17    5.39   -0.28

@<TRIPOS>MOLECULE
          T527693        12
   52    54     0     0     0



@<TRIPOS>ATOM
      1 C1          7.5540   -12.1479    91.0834 C.3        1          -0.1678
      2 C2          6.3772   -11.4020    90.4511 C.3        1           0.1334
      3 C3          5.3004   -12.4065    90.0359 C.3        1          -0.1706
      4 N1          5.8172   -10.4599    91.4232 N.pl3      1          -0.6220
      5 C4          6.3004    -9.1689    91.4902 C.ar       1           0.6791
      6 N2          5.7922    -8.3139    92.3725 N.ar       1          -0.6103
      7 C5          6.2575    -7.0704    92.4370 C.ar       1           0.6967
      8 N3          5.7303    -6.1830    93.3530 N.pl3      1          -0.6732
      9 C6          4.4100    -6.4314    93.9374 C.3        1           0.0939
     10 C7          3.7420    -5.0968    94.2741 C.3        1          -0.0698
     11 C8          2.3839    -5.3524    94.8752 C.2        1           0.0430
     12 C9          2.1016    -5.5105    96.1824 C.2        1           0.0219
     13 N4          0.7815    -5.7176    96.2996 N.pl3      1          -0.4735
     14 H1          0.3078    -5.8619    97.1337 H          1           0.4728
     15 C10         0.2352    -5.6938    95.1147 C.cat      1           0.3253
     16 N5          1.1995    -5.4627    94.1979 N.pl3      1          -0.5108
     17 N6          7.2312    -6.6818    91.6193 N.ar       1          -0.6375
     18 H2          7.5708    -5.7744    91.6665 H          1           0.4315
     19 C11         7.7396    -7.5368    90.7377 C.ar       1           0.6923
     20 N7          8.7507    -7.1335    89.8893 N.pl3      1          -0.6583
     21 C12         9.3109    -8.0760    88.9175 C.3        1           0.1447
     22 C13        10.7557    -7.7328    88.6603 C.ar       1          -0.1266
     23 C14        11.0863    -6.8462    87.6521 C.ar       1          -0.0746
     24 C15        12.4109    -6.5307    87.4153 C.ar       1          -0.0957
     25 C16        13.4067    -7.1017    88.1874 C.ar       1          -0.0089
     26 Cl1        15.0705    -6.7052    87.8907 Cl         1          -0.0177
     27 C17        13.0756    -7.9890    89.1972 C.ar       1          -0.0365
     28 Cl2        14.3240    -8.7058    90.1673 Cl         1          -0.0228
     29 C18        11.7488    -8.3001    89.4361 C.ar       1          -0.0722
     30 N8          7.2776    -8.7819    90.6765 N.ar       1          -0.6055
     31 H3          8.3210   -11.4322    91.3792 H          1           0.0853
     32 H4          7.2086   -12.6940    91.9612 H          1           0.0609
     33 H5          7.9707   -12.8489    90.3602 H          1           0.0663
     34 H6          6.7225   -10.8560    89.5732 H          1           0.1075
     35 H7          4.4620   -11.8752    89.5855 H          1           0.0717
     36 H8          5.7170   -13.1075    89.3126 H          1           0.0696
     37 H9          4.9551   -12.9527    90.9138 H          1           0.0924
     38 H10         5.1068   -10.7434    92.0198 H          1           0.4331
     39 H11         6.2339    -5.3947    93.6100 H          1           0.4480
     40 H12         3.7932    -6.9764    93.2229 H          1           0.0949
     41 H13         4.5206    -7.0220    94.8468 H          1           0.0881
     42 H14         4.3588    -4.5517    94.9885 H          1           0.1175
     43 H15         3.6314    -4.5061    93.3646 H          1           0.1330
     44 H16         2.8132    -5.4766    96.9941 H          1           0.2276
     45 H17        -0.8147    -5.8319    94.9028 H          1           0.2717
     46 H18         1.0761    -5.3906    93.2386 H          1           0.4678
     47 H19         9.0904    -6.2262    89.9363 H          1           0.4483
     48 H20         9.2431    -9.0893    89.3134 H          1           0.0947
     49 H21         8.7506    -8.0120    87.9846 H          1           0.0970
     50 H22        10.3091    -6.4003    87.0492 H          1           0.1436
     51 H23        12.6685    -5.8387    86.6271 H          1           0.1546
     52 H24        11.4896    -8.9890    90.2263 H          1           0.1462
@<TRIPOS>BOND
     1    1    2 1
     2    1   31 1
     3    1   32 1
     4    1   33 1
     5    2    3 1
     6    2    4 1
     7    2   34 1
     8    3   35 1
     9    3   36 1
    10    3   37 1
    11    4    5 1
    12    4   38 1
    13    5   30 ar
    14    5    6 ar
    15    6    7 ar
    16    7    8 1
    17    7   17 ar
    18    8    9 1
    19    8   39 1
    20    9   10 1
    21    9   40 1
    22    9   41 1
    23   10   11 1
    24   10   42 1
    25   10   43 1
    26   11   16 1
    27   11   12 2
    28   12   13 1
    29   12   44 1
    30   13   14 1
    31   13   15 2
    32   15   16 1
    33   15   45 1
    34   16   46 1
    35   17   18 1
    36   17   19 ar
    37   19   20 1
    38   19   30 ar
    39   20   21 1
    40   20   47 1
    41   21   22 1
    42   21   48 1
    43   21   49 1
    44   22   29 ar
    45   22   23 ar
    46   23   24 ar
    47   23   50 1
    48   24   25 ar
    49   24   51 1
    50   25   26 1
    51   25   27 ar
    52   27   28 1
    53   27   29 ar
    54   29   52 1
##########                 Name:              T541640
##########          Protonation:                   15
##########               SMILES:   cc(cc1)CNC(=O)[C@@H]2[NH2+][C@@]3(c4[nH]c5c(c4C2)cc(cc5)Br)CCN(CC3)Cc6ccccc6
##########            Long Name:   ro[2,3,4,9-tetrahydropyrido[3,4-b]indol-2-ium-1,4'-piperidine]-3-carboxamide
##########          FlexRecCode: 1
##########               Number:                    4
##########   Ligand Source File: /raidb/db2/rgc/tcams/tcams-0002156.db2.gz
##########           GlobalRank: 117
##########                 Rank:                    1
##########               Setnum:                  157
##########             Matchnum:                 3743
##########                Cloud:                    1
##########        Electrostatic:           -34.740112
##########        Van der Waals:           -35.512230
##########  Ligand Polar Desolv:             6.205433
########## Ligand Apolar Desolv:            -3.661701
##########      Internal Energy:             0.000000
##########      Receptor Energy: 0.0
########## Receptor Desolvation:             0.000000
########## Receptor Hydrophobic:             0.000000
##########         Total Energy: -67.71
##########        Ligand Charge:             1.000000
##########            Arbitrary:    +999.9990
##########     heavy atom count:   36
##########           pose count:    1
##########        Ligand Energy:             0.000000
# num electro vdwattr vdwrepu polsolv apolsol rdesolv rhydroe totalscore fullpol fullapo
#   1    0.21   -7.93    4.16   -0.53   -0.68    0.00    0.00      -4.77   -0.86   -1.10
#   2    0.71   -1.62    0.23   -0.75   -0.16    0.00    0.00      -1.58   -1.43   -0.30
#   3    0.38   -2.12    0.70   -0.59   -0.23    0.00    0.00      -1.85   -1.21   -0.46
#   4    0.31   -2.52    1.19   -0.61   -0.19    0.00    0.00      -1.81   -1.56   -0.48
#   5   -0.29   -1.71    0.55    0.48   -0.25    0.00    0.00      -1.22    1.46   -0.77
#   6    1.36   -1.65    0.70   -2.98    0.23    0.00    0.00      -2.34  -11.16    0.86
#   7   -0.44   -0.95    0.12    0.52   -0.15    0.00    0.00      -0.90    1.94   -0.55
#   8    1.80   -1.17    0.16   -1.05   -0.14    0.00    0.00      -0.40   -3.22   -0.43
#   9    1.07   -1.05    0.20   -0.65   -0.09    0.00    0.00      -0.53   -1.65   -0.23
#  10   -0.14   -0.87    0.11    0.61   -0.10    0.00    0.00      -0.39    1.48   -0.25
#  11   15.35   -1.16    0.36   -4.99    0.13    0.00    0.00       9.70  -14.64    0.39
#  12  -16.72   -0.03    0.00    3.16    0.11    0.00    0.00     -13.47   15.25    0.53
#  13  -18.10   -0.04    0.00    5.10    0.17    0.00    0.00     -12.87   15.72    0.51
#  14   -2.90   -0.49    0.04    1.34   -0.01    0.00    0.00      -2.02    5.45   -0.06
#  15    1.82   -0.42    0.03   -0.73   -0.04    0.00    0.00       0.67   -3.69   -0.20
#  16   -0.22   -0.60    0.16    0.19   -0.07    0.00    0.00      -0.53    1.05   -0.37
#  17    4.33   -0.35    0.02   -1.37    0.40    0.00    0.00       3.03  -10.64    3.14
#  18   -0.09   -0.18    0.01    0.16   -0.04    0.00    0.00      -0.14    1.60   -0.39
#  19    0.09   -0.23    0.01   -0.09   -0.03    0.00    0.00      -0.25   -0.93   -0.34
#  20    0.06   -0.24    0.02   -0.13   -0.05    0.00    0.00      -0.35   -1.24   -0.45
#  21    0.11   -0.20    0.01   -0.12   -0.04    0.00    0.00      -0.25   -1.32   -0.47
#  22    0.15   -0.22    0.00   -0.12   -0.04    0.00    0.00      -0.23   -1.29   -0.47
#  23    0.18   -0.24    0.00   -0.13   -0.04    0.00    0.00      -0.24   -1.39   -0.47
#  24    0.31   -0.22    0.00   -0.12   -0.03    0.00    0.00      -0.06   -1.37   -0.36
#  25   -0.64   -0.24    0.01    0.13   -0.06    0.00    0.00      -0.79    0.84   -0.37
#  26    3.18   -0.59    0.10   -0.84   -0.05    0.00    0.00       1.80   -3.52   -0.19
#  27   -9.40   -1.36    0.18    5.10   -0.23    0.00    0.00      -5.72   13.07   -0.60
#  28    6.19   -1.56    0.20   -5.27    0.17    0.00    0.00      -0.28  -12.13    0.38
#  29   16.16   -1.60    0.24   -6.52    0.96    0.00    0.00       9.24  -15.60    2.29
#  30   -3.65   -1.32    0.27    1.53   -0.22    0.00    0.00      -3.39    3.08   -0.44
#  31    3.22   -1.38    0.19   -0.66   -0.17    0.00    0.00       1.21   -1.48   -0.37
#  32    2.80   -1.86    0.50   -0.60   -0.20    0.00    0.00       0.64   -1.38   -0.45
#  33    3.33   -1.52    0.33   -0.60   -0.18    0.00    0.00       1.36   -1.57   -0.47
#  34    2.39   -1.50    0.45   -0.45   -0.15    0.00    0.00       0.73   -1.38   -0.47
#  35    2.04   -1.28    0.19   -0.59   -0.18    0.00    0.00       0.18   -1.58   -0.47
#  36    1.72   -1.32    0.17   -0.58   -0.19    0.00    0.00      -0.19   -1.39   -0.45
#  37    0.64   -1.23    0.13   -0.60   -0.15    0.00    0.00      -1.21   -1.77   -0.44
#  38    0.27   -1.43    0.21   -0.20   -0.19    0.00    0.00      -1.34   -0.50   -0.46
#  39   -1.57   -0.63    0.40    0.44   -0.14    0.00    0.00      -1.50    0.89   -0.28
#  40   -0.37   -0.71    0.46    0.78   -0.10    0.00    0.00       0.07    2.23   -0.28
#  41    0.11   -0.03    0.00    1.66    0.07    0.00    0.00       1.81    8.78    0.35
#  42   -1.81   -0.27    0.03    1.01   -0.08    0.00    0.00      -1.12    3.59   -0.28
#  43   -2.71   -0.90    0.88    1.49   -0.10    0.00    0.00      -1.34    3.95   -0.27
#  44   -4.64   -0.49    0.26    3.10   -0.10    0.00    0.00      -1.88    7.12   -0.22
#  45   -0.87   -0.17    0.03    0.49   -0.04    0.00    0.00      -0.55    3.69   -0.28
#  46   -2.33   -0.10    0.00    0.45   -0.03    0.00    0.00      -2.01    4.42   -0.28
#  47    0.22   -0.67    0.79    0.16   -0.04    0.00    0.00       0.46    0.71   -0.20
#  48   -0.28   -0.13    0.02    0.22   -0.03    0.00    0.00      -0.21    1.90   -0.29
#  49   -0.14   -0.02    0.00    0.03   -0.01    0.00    0.00      -0.14    0.87   -0.28
#  50    0.00   -0.12    0.03    0.13   -0.02    0.00    0.00       0.02    1.42   -0.27
#  51   -0.05   -0.05    0.00    0.10   -0.02    0.00    0.00      -0.01    1.70   -0.28
#  52   -0.10   -0.03    0.00    0.04   -0.01    0.00    0.00      -0.11    1.08   -0.28
#  53   -0.19   -0.05    0.00    0.05   -0.02    0.00    0.00      -0.20    0.91   -0.28
#  54   -0.21   -0.06    0.00    0.08   -0.02    0.00    0.00      -0.21    1.29   -0.28
#  55   -0.76   -0.05    0.00    0.10   -0.01    0.00    0.00      -0.72    2.03   -0.28
#  56   -0.33   -0.08    0.00    0.05   -0.01    0.00    0.00      -0.36    0.72   -0.20
#  57   -1.39   -0.05    0.00    0.05   -0.01    0.00    0.00      -1.39    1.19   -0.20
#  58   -3.99   -0.37    0.26    0.80   -0.06    0.00    0.00      -3.36    3.98   -0.28
#  59   -2.35   -0.32    0.11    0.88   -0.05    0.00    0.00      -1.73    3.74   -0.23
#  60  -11.60   -0.02    0.00    2.79    0.14    0.00    0.00      -8.68   10.47    0.54
#  61   -1.48   -0.55    0.29    0.55   -0.12    0.00    0.00      -1.30    1.32   -0.28
#  62   -2.44   -0.74    0.36    0.68   -0.14    0.00    0.00      -2.28    1.34   -0.28
#  63   -3.24   -0.82    1.20    1.01   -0.12    0.00    0.00      -1.96    2.35   -0.28
#  64   -3.33   -0.26    0.02    0.38   -0.08    0.00    0.00      -3.28    1.31   -0.28
#  65   -2.73   -0.55    0.75    0.26   -0.07    0.00    0.00      -2.35    0.97   -0.28
#  66   -1.14   -0.27    0.04    0.40   -0.09    0.00    0.00      -1.06    1.31   -0.28
#  67   -0.90   -0.43    0.20    0.88   -0.11    0.00    0.00      -0.36    2.31   -0.28
#  68   -1.73   -0.28    0.04    0.68   -0.07    0.00    0.00      -1.37    2.53   -0.28

@<TRIPOS>MOLECULE
          T541640        15
   68    73     0     0     0



@<TRIPOS>ATOM
      1 Br1         8.9051   -12.5447    98.7208 Br         1          -0.0354
      2 C1          8.0266   -11.7792    97.2313 C.ar       1          -0.1052
      3 C2          7.5186   -12.6149    96.2492 C.ar       1          -0.0589
      4 C3          6.8581   -12.1279    95.1346 C.ar       1          -0.1151
      5 C4          6.7204   -10.7451    95.0371 C.ar       1           0.1193
      6 N1          6.1202    -9.9457    94.1055 N.pl3      1          -0.5584
      7 C5          6.2635    -8.6258    94.4475 C.2        1           0.0432
      8 C6          6.9539    -8.5464    95.6077 C.2        1          -0.1518
      9 C7          7.3037    -7.2444    96.2805 C.3        1          -0.0586
     10 C8          6.2557    -6.2258    95.8242 C.3        1           0.0059
     11 N2          6.1372    -6.1842    94.3773 N.4        1          -0.4839
     12 H1          5.4526    -5.4703    94.1243 H          1           0.4351
     13 H2          7.0255    -5.8638    93.9863 H          1           0.4415
     14 C9          5.7689    -7.4250    93.6868 C.3        1           0.1450
     15 C10         4.2529    -7.4772    93.5072 C.3        1          -0.1356
     16 C11         3.8431    -8.6445    92.6122 C.3        1           0.0587
     17 N3          4.5051    -8.5282    91.3091 N.3        1          -0.5355
     18 C12         4.0346    -9.5621    90.3786 C.3        1           0.0987
     19 C13         2.5483    -9.4173    90.1764 C.ar       1          -0.0925
     20 C14         1.7762   -10.5307    89.9021 C.ar       1          -0.0948
     21 C15         0.4129   -10.3978    89.7167 C.ar       1          -0.1168
     22 C16        -0.1785    -9.1511    89.8058 C.ar       1          -0.1109
     23 C17         0.5933    -8.0383    90.0811 C.ar       1          -0.1184
     24 C18         1.9560    -8.1717    90.2709 C.ar       1          -0.1184
     25 C19         5.9648    -8.5536    91.4391 C.3        1           0.0515
     26 C20         6.4404    -7.3929    92.3051 C.3        1          -0.1313
     27 C21         4.9430    -6.4940    96.5048 C.2        1           0.5070
     28 O1          4.8226    -7.4572    97.2320 O.2        1          -0.5231
     29 N4          3.8994    -5.6643    96.3069 N.am       1          -0.6943
     30 C22         2.6198    -5.9258    96.9703 C.3        1           0.1610
     31 C23         1.5452    -6.1177    95.9312 C.ar       1          -0.1283
     32 C24         0.8269    -5.0301    95.4709 C.ar       1          -0.0977
     33 C25        -0.1587    -5.2060    94.5177 C.ar       1          -0.1190
     34 C26        -0.4255    -6.4695    94.0245 C.ar       1          -0.1004
     35 C27         0.2935    -7.5570    94.4841 C.ar       1          -0.1191
     36 C28         1.2820    -7.3804    95.4341 C.ar       1          -0.0981
     37 C29         7.2553    -9.8939    96.0367 C.ar       1          -0.0914
     38 C30         7.9170   -10.4120    97.1544 C.ar       1          -0.0322
     39 H3          7.6445   -13.6820    96.3560 H          1           0.1424
     40 H4          6.4699   -12.7894    94.3743 H          1           0.1449
     41 H5          5.6659   -10.2830    93.3197 H          1           0.4205
     42 H6          7.2663    -7.3621    97.3636 H          1           0.1111
     43 H7          8.2989    -6.9219    95.9767 H          1           0.1277
     44 H8          6.6016    -5.2293    96.1644 H          1           0.1689
     45 H9          3.7642    -7.5974    94.4762 H          1           0.1017
     46 H10         3.9111    -6.5409    93.0577 H          1           0.1097
     47 H11         4.0953    -9.5900    93.0826 H          1           0.0379
     48 H12         2.7576    -8.6114    92.4604 H          1           0.1057
     49 H13         4.5442    -9.4488    89.4217 H          1           0.0479
     50 H14         4.2509   -10.5476    90.7910 H          1           0.0946
     51 H15         2.2384   -11.5043    89.8324 H          1           0.1238
     52 H16        -0.1901   -11.2676    89.5016 H          1           0.1260
     53 H17        -1.2436    -9.0479    89.6605 H          1           0.1255
     54 H18         0.1313    -7.0646    90.1507 H          1           0.1242
     55 H19         2.5585    -7.3025    90.4895 H          1           0.1157
     56 H20         6.2868    -9.5006    91.8648 H          1           0.0418
     57 H21         6.4082    -8.4585    90.4402 H          1           0.1100
     58 H22         6.1963    -6.4460    91.8182 H          1           0.1099
     59 H23         7.5225    -7.4540    92.4394 H          1           0.0970
     60 H24         3.9958    -4.8940    95.7254 H          1           0.4117
     61 H25         2.7028    -6.8271    97.5777 H          1           0.0890
     62 H26         2.3615    -5.0804    97.6082 H          1           0.0895
     63 H27         1.0353    -4.0429    95.8563 H          1           0.1249
     64 H28        -0.7205    -4.3563    94.1587 H          1           0.1288
     65 H29        -1.1961    -6.6071    93.2804 H          1           0.1287
     66 H30         0.0848    -8.5442    94.0989 H          1           0.1286
     67 H31         1.8464    -8.2295    95.7905 H          1           0.1244
     68 H32         8.3171    -9.7682    97.9240 H          1           0.1460
@<TRIPOS>BOND
     1    1    2 1
     2    2   38 ar
     3    2    3 ar
     4    3    4 ar
     5    3   39 1
     6    4    5 ar
     7    4   40 1
     8    5   37 ar
     9    5    6 1
    10    6    7 1
    11    6   41 1
    12    7   14 1
    13    7    8 2
    14    8    9 1
    15    8   37 1
    16    9   10 1
    17    9   42 1
    18    9   43 1
    19   10   11 1
    20   10   27 1
    21   10   44 1
    22   11   12 1
    23   11   13 1
    24   11   14 1
    25   14   26 1
    26   14   15 1
    27   15   16 1
    28   15   45 1
    29   15   46 1
    30   16   17 1
    31   16   47 1
    32   16   48 1
    33   17   18 1
    34   17   25 1
    35   18   19 1
    36   18   49 1
    37   18   50 1
    38   19   24 ar
    39   19   20 ar
    40   20   21 ar
    41   20   51 1
    42   21   22 ar
    43   21   52 1
    44   22   23 ar
    45   22   53 1
    46   23   24 ar
    47   23   54 1
    48   24   55 1
    49   25   26 1
    50   25   56 1
    51   25   57 1
    52   26   58 1
    53   26   59 1
    54   27   28 2
    55   27   29 am
    56   29   30 1
    57   29   60 1
    58   30   31 1
    59   30   61 1
    60   30   62 1
    61   31   36 ar
    62   31   32 ar
    63   32   33 ar
    64   32   63 1
    65   33   34 ar
    66   33   64 1
    67   34   35 ar
    68   34   65 1
    69   35   36 ar
    70   35   66 1
    71   36   67 1
    72   37   38 ar
    73   38   68 1
##########                 Name:              T527940
##########          Protonation:                   94
##########               SMILES:   1[C@@H]2C[C@@H]2C(=O)NCCCCC[NH+]3CCCN(CC3)C(=O)Nc4ccc(c(c4)C(F)(F)F)Cl)Cl)Cl
##########            Long Name:   rophenyl)cyclopropanecarbonyl]amino]pentyl]-1,4-diazepan-4-ium-1-carboxamide
##########          FlexRecCode: 1
##########               Number:                  170
##########   Ligand Source File: /raidb/db2/rgc/tcams/tcams-0000427.db2.gz
##########           GlobalRank: 118
##########                 Rank:                    1
##########               Setnum:                  214
##########             Matchnum:                 1566
##########                Cloud:                    1
##########        Electrostatic:           -46.874275
##########        Van der Waals:           -24.741905
##########  Ligand Polar Desolv:             8.685409
########## Ligand Apolar Desolv:            -4.770135
##########      Internal Energy:             0.000000
##########      Receptor Energy: 0.0
########## Receptor Desolvation:             0.000000
########## Receptor Hydrophobic:             0.000000
##########         Total Energy: -67.7
##########        Ligand Charge:             1.000000
##########            Arbitrary:    +999.9990
##########     heavy atom count:   40
##########           pose count:    1
##########        Ligand Energy:             0.000000
# num electro vdwattr vdwrepu polsolv apolsol rdesolv rhydroe totalscore fullpol fullapo
#   1    1.74   -0.97    0.10   -0.54   -0.24    0.00    0.00       0.09   -1.00   -0.44
#   2   -3.04   -1.16    0.20    1.05   -0.03    0.00    0.00      -2.97    2.21   -0.06
#   3    1.12   -0.65    0.05   -0.17   -0.16    0.00    0.00       0.19   -0.46   -0.45
#   4   -0.15   -3.36    5.00   -0.30   -0.24    0.00    0.00       0.95   -0.56   -0.45
#   5    1.02   -1.59    0.29   -0.54   -0.16    0.00    0.00      -0.96   -1.24   -0.37
#   6    0.49   -1.87    0.45   -0.36   -0.17    0.00    0.00      -1.46   -0.94   -0.44
#   7   -1.75   -1.74    0.35    1.14   -0.31    0.00    0.00      -2.32    2.47   -0.68
#   8    8.87   -1.59    0.19   -5.39    0.77    0.00    0.00       2.84  -11.69    1.67
#   9   -7.18   -1.47    0.22    4.66   -0.77    0.00    0.00      -4.53   12.20   -2.02
#  10    0.01   -3.66    3.03   -3.39    0.14    0.00    0.00      -3.88   -8.01    0.32
#  11   10.92   -0.87    0.04   -4.63    0.46    0.00    0.00       5.92  -14.38    1.44
#  12   -1.68   -0.50    0.02    0.59   -0.13    0.00    0.00      -1.71    2.05   -0.46
#  13    1.45   -0.52    0.09   -0.91   -0.05    0.00    0.00       0.06   -4.50   -0.24
#  14    0.13   -0.40    0.04   -0.07   -0.07    0.00    0.00      -0.37   -0.35   -0.36
#  15    9.48   -0.70    0.14   -2.60    0.04    0.00    0.00       6.36  -11.56    0.18
#  16  -13.78   -0.02    0.00    2.81    0.07    0.00    0.00     -10.92   17.08    0.45
#  17    0.55   -0.64    0.17   -0.01   -0.07    0.00    0.00       0.00   -0.05   -0.34
#  18    3.50   -0.67    0.11   -1.04   -0.05    0.00    0.00       1.85   -4.10   -0.20
#  19    1.68   -0.60    0.07   -0.72   -0.05    0.00    0.00       0.37   -2.92   -0.22
#  20    0.42   -1.19    0.55   -0.70   -0.07    0.00    0.00      -0.99   -2.33   -0.22
#  21   -0.34   -1.51    1.35    0.43   -0.12    0.00    0.00      -0.18    1.51   -0.42
#  22    3.42   -3.77    4.99   -3.41    0.83    0.00    0.00       2.06   -9.48    2.32
#  23   -2.51   -1.70    0.41    1.76   -0.23    0.00    0.00      -2.27    4.79   -0.62
#  24    2.17   -1.86    0.83   -0.84    0.09    0.00    0.00       0.40   -2.59    0.28
#  25    4.18   -1.65    0.87   -0.88   -0.18    0.00    0.00       2.33   -1.96   -0.41
#  26    5.42   -2.30    1.38   -0.76   -0.20    0.00    0.00       3.54   -1.56   -0.41
#  27    2.49   -1.32    0.36   -0.53   -0.17    0.00    0.00       0.84   -1.22   -0.39
#  28    0.75   -0.87    0.08   -0.05   -0.09    0.00    0.00      -0.19   -0.16   -0.30
#  29    0.76   -0.81    0.07   -0.04   -0.08    0.00    0.00      -0.09   -0.14   -0.27
#  30    0.55   -0.46    0.02   -0.02   -0.05    0.00    0.00       0.03   -0.13   -0.30
#  31    1.01   -2.71    1.42   -0.03   -0.25    0.00    0.00      -0.55   -0.10   -0.95
#  32    0.25   -0.22    0.00   -0.01   -0.03    0.00    0.00       0.00   -0.13   -0.30
#  33    0.30   -0.28    0.01    0.00   -0.06    0.00    0.00      -0.03   -0.07   -0.95
#  34    0.64   -0.37    0.04   -0.05   -0.06    0.00    0.00       0.20   -0.43   -0.46
#  35    1.05   -1.19    0.63   -0.13   -0.10    0.00    0.00       0.26   -0.60   -0.46
#  36    1.28   -0.78    0.17   -0.11   -0.11    0.00    0.00       0.45   -0.41   -0.39
#  37   -3.11   -0.77    0.08    0.88   -0.15    0.00    0.00      -3.07    2.42   -0.42
#  38    1.25   -2.01    0.37   -0.45   -0.22    0.00    0.00      -1.07   -0.82   -0.40
#  39    1.32   -2.03    0.46   -0.43   -0.24    0.00    0.00      -0.93   -0.81   -0.46
#  40    0.03   -1.62    0.29   -0.18   -0.15    0.00    0.00      -1.63   -0.35   -0.30
#  41    0.19   -5.23    2.42   -0.24   -0.54    0.00    0.00      -3.40   -0.40   -0.91
#  42   -0.10   -0.45    0.15    0.81   -0.08    0.00    0.00       0.34    2.67   -0.25
#  43   -6.24   -0.03    0.00    3.67    0.16    0.00    0.00      -2.44    9.54    0.41
#  44   -1.63   -0.18    0.01    0.46   -0.04    0.00    0.00      -1.38    2.44   -0.20
#  45   -2.50   -0.15    0.00    0.29   -0.04    0.00    0.00      -2.40    2.12   -0.28
#  46    0.38   -0.48    0.53    0.86   -0.05    0.00    0.00       1.25    4.42   -0.28
#  47   -1.24   -0.09    0.00    0.39   -0.02    0.00    0.00      -0.95    4.81   -0.25
#  48   -0.54   -0.20    0.05    0.47   -0.04    0.00    0.00      -0.26    3.20   -0.24
#  49   -1.12   -0.08    0.00    0.48   -0.02    0.00    0.00      -0.74    6.09   -0.21
#  50   -5.21   -0.51    0.48    1.11   -0.06    0.00    0.00      -4.19    4.92   -0.27
#  51   -2.21   -0.07    0.00    0.28   -0.02    0.00    0.00      -2.02    4.05   -0.27
#  52   -1.22   -0.08    0.00    0.30   -0.02    0.00    0.00      -1.02    3.78   -0.21
#  53   -3.28   -0.52    0.27    1.17   -0.09    0.00    0.00      -2.44    3.85   -0.28
#  54   -2.05   -0.31    0.07    0.29   -0.06    0.00    0.00      -2.06    1.27   -0.28
#  55   -0.75   -0.06    0.00    0.07   -0.02    0.00    0.00      -0.76    1.24   -0.28
#  56   -0.17   -0.16    0.02    0.34   -0.05    0.00    0.00      -0.02    2.09   -0.28
#  57   -0.47   -1.01    1.22    0.82   -0.11    0.00    0.00       0.44    2.02   -0.28
#  58   -0.19   -0.11    0.01    0.02   -0.03    0.00    0.00      -0.31    0.19   -0.28
#  59   -0.11   -1.16    2.93    0.06   -0.08    0.00    0.00       1.63    0.20   -0.28
#  60   -8.82   -0.33    0.34    2.83    0.22    0.00    0.00      -5.76    7.50    0.57
#  61   -2.87   -0.77    1.18    1.20   -0.11    0.00    0.00      -1.37    3.03   -0.28
#  62   -4.67   -1.22    1.76    1.19   -0.15    0.00    0.00      -3.10    2.25   -0.28
#  63   -4.72   -1.06    1.24    0.33   -0.10    0.00    0.00      -4.30    0.76   -0.22
#  64   -5.39   -0.99    1.70    0.84   -0.11    0.00    0.00      -3.95    2.08   -0.28
#  65   -3.75   -0.35    0.12    0.15   -0.05    0.00    0.00      -3.87    0.56   -0.19
#  66   -0.34   -0.06    0.01    0.05   -0.02    0.00    0.00      -0.35    0.81   -0.28
#  67   -2.09   -1.43    6.79    0.40   -0.07    0.00    0.00       3.60    1.69   -0.28
#  68   -2.21   -0.16    0.01    0.44   -0.04    0.00    0.00      -1.95    2.83   -0.28
#  69   -5.34   -0.51    0.32    1.75   -0.07    0.00    0.00      -3.86    6.08   -0.26
#  70   -3.84   -0.34    0.09    1.57   -0.09    0.00    0.00      -2.61    4.99   -0.28
#  71   -3.23   -0.28    0.04    0.36   -0.07    0.00    0.00      -3.19    1.24   -0.24
#  72   -3.16   -0.46    0.05    1.11   -0.12    0.00    0.00      -2.58    2.07   -0.22
#  73   -2.66   -0.55    0.25    0.78   -0.14    0.00    0.00      -2.32    1.58   -0.28

@<TRIPOS>MOLECULE
          T527940        94
   73    76     0     0     0



@<TRIPOS>ATOM
      1 F1          8.5626   -13.1511    96.6819 F          1          -0.1742
      2 C1          7.5552   -12.2418    96.3419 C.3        1           0.5099
      3 F2          7.6124   -11.9741    94.9699 F          1          -0.1648
      4 F3          6.3070   -12.7887    96.6587 F          1          -0.1654
      5 C2          7.7530   -10.9618    97.1123 C.ar       1          -0.1540
      6 C3          6.8708    -9.9122    96.9446 C.ar       1          -0.0848
      7 C4          7.0532    -8.7334    97.6550 C.ar       1           0.1530
      8 N1          6.1603    -7.6682    97.4872 N.am       1          -0.6776
      9 C5          5.1225    -7.7866    96.6355 C.2        1           0.7036
     10 O1          4.2907    -8.6566    96.8080 O.2        1          -0.5496
     11 N2          5.0067    -6.9409    95.5926 N.am       1          -0.6351
     12 C6          3.7200    -6.5853    95.0759 C.3        1           0.0939
     13 C7          3.1149    -7.4841    93.9594 C.3        1          -0.1568
     14 C8          4.2505    -7.8834    92.9772 C.3        1          -0.0118
     15 N3          5.1639    -6.7979    92.7712 N.4        1          -0.3664
     16 H1          4.7050    -5.9296    93.0022 H          1           0.4175
     17 C9          5.5694    -6.7686    91.3596 C.3        1          -0.0204
     18 C10         4.4748    -6.0959    90.5286 C.3        1          -0.1464
     19 C11         4.8970    -6.0653    89.0583 C.3        1          -0.1155
     20 C12         3.8025    -5.3927    88.2272 C.3        1          -0.1317
     21 C13         4.2248    -5.3621    86.7571 C.3        1           0.1188
     22 N4          5.4731    -4.6071    86.6230 N.am       1          -0.7320
     23 C14         6.3440    -4.9137    85.6413 C.2        1           0.5369
     24 O2          6.0944    -5.8147    84.8687 O.2        1          -0.5125
     25 C15         7.6281    -4.1370    85.5034 C.3        1          -0.1855
     26 C16         8.1884    -3.4694    86.7609 C.3        1          -0.1446
     27 C17         8.8753    -4.7076    86.1814 C.3        1          -0.0800
     28 C18         8.7256    -6.0035    86.9359 C.ar       1          -0.0374
     29 C19         9.0111    -6.0528    88.2876 C.ar       1          -0.0348
     30 C20         8.8740    -7.2420    88.9805 C.ar       1          -0.0348
     31 Cl1         9.2316    -7.3043    90.6780 Cl         1          -0.0563
     32 C21         8.4507    -8.3828    88.3192 C.ar       1          -0.0286
     33 Cl2         8.2776    -9.8760    89.1874 Cl         1          -0.0524
     34 C22         8.1657    -8.3317    86.9669 C.ar       1          -0.1059
     35 C23         8.2979    -7.1409    86.2771 C.ar       1          -0.0931
     36 C24         6.3538    -6.9549    93.6155 C.3        1          -0.0469
     37 C25         6.2238    -6.3435    94.9481 C.3        1           0.1144
     38 C26         8.1228    -8.6128    98.5326 C.ar       1          -0.0755
     39 C27         9.0018    -9.6651    98.6966 C.ar       1          -0.0884
     40 C28         8.8146   -10.8411    97.9911 C.ar       1          -0.0028
     41 Cl3         9.9178   -12.1645    98.2046 Cl         1          -0.0293
     42 H2          6.0400   -10.0083    96.2612 H          1           0.1520
     43 H3          6.2885    -6.8450    97.9840 H          1           0.4110
     44 H4          3.0181    -6.5712    95.9097 H          1           0.0927
     45 H5          3.7860    -5.5692    94.6868 H          1           0.0958
     46 H6          2.6839    -8.3809    94.4046 H          1           0.1284
     47 H7          2.3437    -6.9318    93.4225 H          1           0.0949
     48 H8          4.7940    -8.7349    93.3866 H          1           0.1286
     49 H9          3.8119    -8.1675    92.0205 H          1           0.1394
     50 H10         6.4980    -6.2067    91.2601 H          1           0.1349
     51 H11         5.7212    -7.7876    91.0038 H          1           0.1315
     52 H12         3.5460    -6.6578    90.6281 H          1           0.0874
     53 H13         4.3229    -5.0769    90.8844 H          1           0.0894
     54 H14         5.8259    -5.5035    88.9587 H          1           0.0798
     55 H15         5.0489    -7.0844    88.7025 H          1           0.0786
     56 H16         2.8738    -5.9546    88.3269 H          1           0.0736
     57 H17         3.6507    -4.3737    88.5830 H          1           0.0745
     58 H18         4.3766    -6.3812    86.4013 H          1           0.0694
     59 H19         3.4451    -4.8830    86.1649 H          1           0.0690
     60 H20         5.6726    -3.8864    87.2409 H          1           0.4007
     61 H21         7.7638    -3.6179    84.5546 H          1           0.1310
     62 H22         8.6930    -2.5109    86.6395 H          1           0.1164
     63 H23         7.6283    -3.5920    87.6880 H          1           0.1047
     64 H24         9.8317    -4.5637    85.6788 H          1           0.1309
     65 H25         9.3414    -5.1629    88.8026 H          1           0.1298
     66 H26         7.8360    -9.2211    86.4504 H          1           0.1409
     67 H27         8.0707    -7.1002    85.2220 H          1           0.1351
     68 H28         6.5555    -8.0191    93.7378 H          1           0.1315
     69 H29         7.2034    -6.4992    93.1069 H          1           0.1471
     70 H30         6.1005    -5.2647    94.8524 H          1           0.1034
     71 H31         7.1068    -6.5645    95.5478 H          1           0.1346
     72 H32         8.2671    -7.6967    99.0862 H          1           0.1562
     73 H33         9.8339    -9.5717    99.3788 H          1           0.1541
@<TRIPOS>BOND
     1    1    2 1
     2    2    3 1
     3    2    4 1
     4    2    5 1
     5    5   40 ar
     6    5    6 ar
     7    6    7 ar
     8    6   42 1
     9    7    8 1
    10    7   38 ar
    11    8    9 am
    12    8   43 1
    13    9   10 2
    14    9   11 am
    15   11   37 1
    16   11   12 1
    17   12   13 1
    18   12   44 1
    19   12   45 1
    20   13   14 1
    21   13   46 1
    22   13   47 1
    23   14   15 1
    24   14   48 1
    25   14   49 1
    26   15   16 1
    27   15   17 1
    28   15   36 1
    29   17   18 1
    30   17   50 1
    31   17   51 1
    32   18   19 1
    33   18   52 1
    34   18   53 1
    35   19   20 1
    36   19   54 1
    37   19   55 1
    38   20   21 1
    39   20   56 1
    40   20   57 1
    41   21   22 1
    42   21   58 1
    43   21   59 1
    44   22   23 am
    45   22   60 1
    46   23   24 2
    47   23   25 1
    48   25   27 1
    49   25   26 1
    50   25   61 1
    51   26   27 1
    52   26   62 1
    53   26   63 1
    54   27   28 1
    55   27   64 1
    56   28   35 ar
    57   28   29 ar
    58   29   30 ar
    59   29   65 1
    60   30   31 1
    61   30   32 ar
    62   32   33 1
    63   32   34 ar
    64   34   35 ar
    65   34   66 1
    66   35   67 1
    67   36   37 1
    68   36   68 1
    69   36   69 1
    70   37   70 1
    71   37   71 1
    72   38   39 ar
    73   38   72 1
    74   39   40 ar
    75   39   73 1
    76   40   41 1
##########                 Name:              T526186
##########          Protonation:                   99
##########               SMILES:   Cc1c(cccc1)OC[C@H](O)C[NH2+][C@H]2CC[C@@H](CC2)[NH2+]C[C@@H](O)COc3c(cccc3)C
##########            Long Name:   l]-[4-[[(2R)-2-hydroxy-3-(2-methylphenoxy)propyl]ammonio]cyclohexyl]ammonium
##########          FlexRecCode: 1
##########               Number:                  291
##########   Ligand Source File: /raidb/db2/rgc/tcams/tcams-0000290.db2.gz
##########           GlobalRank: 119
##########                 Rank:                    1
##########               Setnum:                  432
##########             Matchnum:                 1236
##########                Cloud:                    1
##########        Electrostatic:           -58.074734
##########        Van der Waals:           -20.105171
##########  Ligand Polar Desolv:            12.205038
########## Ligand Apolar Desolv:            -1.712481
##########      Internal Energy:             0.000000
##########      Receptor Energy: 0.0
########## Receptor Desolvation:             0.000000
########## Receptor Hydrophobic:             0.000000
##########         Total Energy: -67.69
##########        Ligand Charge:             2.000000
##########            Arbitrary:    +999.9990
##########     heavy atom count:   32
##########           pose count:    1
##########        Ligand Energy:             0.000000
# num electro vdwattr vdwrepu polsolv apolsol rdesolv rhydroe totalscore fullpol fullapo
#   1    0.12   -0.06    0.00   -0.05   -0.01    0.00    0.00       0.01   -1.27   -0.20
#   2    0.12   -0.13    0.00   -0.13   -0.02    0.00    0.00      -0.15   -2.31   -0.41
#   3    0.07   -0.13    0.00   -0.08   -0.02    0.00    0.00      -0.17   -1.48   -0.45
#   4    0.12   -0.32    0.02   -0.25   -0.05    0.00    0.00      -0.48   -2.50   -0.47
#   5    0.11   -0.45    0.02   -0.27   -0.07    0.00    0.00      -0.66   -1.70   -0.47
#   6    0.33   -0.44    0.02   -0.65   -0.07    0.00    0.00      -0.82   -3.67   -0.42
#   7   -0.17   -0.27    0.01    0.24   -0.03    0.00    0.00      -0.23    2.29   -0.31
#   8    0.58   -0.30    0.01   -1.07    0.11    0.00    0.00      -0.68   -7.16    0.72
#   9   -0.08   -1.04    0.65   -0.22   -0.02    0.00    0.00      -0.72   -0.81   -0.08
#  10   -0.97   -1.16    0.39    1.10   -0.05    0.00    0.00      -0.69    3.51   -0.15
#  11    5.04   -1.84    1.05   -6.36    0.49    0.00    0.00      -1.61  -19.74    1.53
#  12    0.46   -0.46    0.04   -0.01   -0.08    0.00    0.00      -0.06   -0.06   -0.36
#  13   10.64   -0.66    0.04   -7.33    0.19    0.00    0.00       2.89  -23.76    0.63
#  14  -10.26   -0.01    0.00    4.37    0.11    0.00    0.00      -5.80   21.84    0.53
#  15  -11.65   -0.02    0.00    5.84    0.15    0.00    0.00      -5.68   22.48    0.56
#  16   -0.38   -0.40    0.02    0.54   -0.05    0.00    0.00      -0.26    2.50   -0.22
#  17    4.50   -1.31    0.46   -2.43   -0.07    0.00    0.00       1.16   -7.40   -0.21
#  18    4.37   -1.22    0.49   -2.04   -0.07    0.00    0.00       1.53   -6.99   -0.23
#  19   -0.62   -1.13    0.61    0.66   -0.06    0.00    0.00      -0.54    2.46   -0.22
#  20    2.61   -0.37    0.03   -1.45   -0.04    0.00    0.00       0.77   -7.34   -0.21
#  21    2.48   -0.40    0.03   -1.39   -0.05    0.00    0.00       0.67   -6.97   -0.23
#  22   13.10   -0.72    0.17   -5.04    0.13    0.00    0.00       7.65  -23.79    0.63
#  23  -13.31   -0.02    0.00    3.51    0.09    0.00    0.00      -9.73   22.44    0.56
#  24   -6.84    0.00    0.00    1.40    0.03    0.00    0.00      -5.41   21.88    0.53
#  25    1.16   -0.62    0.11   -0.02   -0.09    0.00    0.00       0.54   -0.08   -0.36
#  26   -1.17   -0.47    0.04    0.78   -0.03    0.00    0.00      -0.84    3.53   -0.15
#  27    0.54   -1.34    0.67   -4.19    0.32    0.00    0.00      -4.00  -19.94    1.53
#  28   -0.32   -0.66    0.10   -0.24   -0.02    0.00    0.00      -1.15   -0.82   -0.08
#  29    3.44   -0.87    0.08   -2.19    0.22    0.00    0.00       0.67   -7.15    0.72
#  30   -1.24   -1.28    0.16    0.81   -0.11    0.00    0.00      -1.67    2.27   -0.31
#  31    3.19   -1.60    0.22   -1.72   -0.20    0.00    0.00      -0.11   -3.65   -0.42
#  32    1.55   -2.07    0.29   -0.96   -0.27    0.00    0.00      -1.45   -1.70   -0.47
#  33    2.16   -2.39    0.98   -1.36   -0.26    0.00    0.00      -0.86   -2.49   -0.47
#  34    0.78   -1.82    0.63   -0.70   -0.21    0.00    0.00      -1.33   -1.48   -0.45
#  35    0.84   -1.30    0.14   -0.86   -0.15    0.00    0.00      -1.33   -2.31   -0.41
#  36    0.55   -0.86    0.09   -0.48   -0.08    0.00    0.00      -0.77   -1.26   -0.20
#  37   -0.06   -0.01    0.00    0.01   -0.01    0.00    0.00      -0.06    0.73   -0.28
#  38   -0.08   -0.02    0.00    0.01   -0.01    0.00    0.00      -0.09    0.60   -0.28
#  39   -0.10   -0.02    0.00    0.03   -0.01    0.00    0.00      -0.09    1.24   -0.26
#  40   -0.09   -0.02    0.00    0.02   -0.01    0.00    0.00      -0.08    1.16   -0.28
#  41   -0.07   -0.11    0.02    0.11   -0.02    0.00    0.00      -0.08    1.30   -0.28
#  42   -0.18   -0.15    0.01    0.36   -0.04    0.00    0.00       0.00    2.63   -0.28
#  43   -0.23   -0.15    0.01    0.89   -0.04    0.00    0.00       0.48    5.14   -0.22
#  44   -0.21   -0.77    2.35    0.88   -0.06    0.00    0.00       2.19    3.78   -0.27
#  45   -0.24   -0.43    0.19    0.86   -0.08    0.00    0.00       0.31    2.97   -0.27
#  46   -3.62   -0.80    0.58    1.83   -0.11    0.00    0.00      -2.12    4.50   -0.28
#  47  -10.49   -0.05    0.00    4.29    0.36    0.00    0.00      -5.88   14.36    1.22
#  48   -1.27   -0.24    0.10    1.47   -0.04    0.00    0.00       0.04    8.97   -0.22
#  49   -0.45   -0.06    0.00    0.46   -0.02    0.00    0.00      -0.06    8.53   -0.28
#  50   -1.88   -0.07    0.00    0.48   -0.02    0.00    0.00      -1.48    8.58   -0.28
#  51   -4.33   -1.13    1.85    2.04   -0.11    0.00    0.00      -1.68    5.40   -0.28
#  52   -3.22   -0.44    0.22    1.33   -0.06    0.00    0.00      -2.17    4.89   -0.21
#  53   -5.07   -0.98    1.18    1.46   -0.10    0.00    0.00      -3.51    4.30   -0.28
#  54   -1.72   -0.11    0.01    0.61   -0.03    0.00    0.00      -1.25    5.05   -0.28
#  55   -6.93   -1.31    3.89    2.98   -0.09    0.00    0.00      -1.45    8.83   -0.28
#  56   -1.80   -0.16    0.02    0.72   -0.03    0.00    0.00      -1.25    4.89   -0.21
#  57   -1.29   -0.04    0.00    0.23   -0.01    0.00    0.00      -1.12    5.17   -0.28
#  58   -1.23   -0.06    0.00    0.23   -0.02    0.00    0.00      -1.08    4.11   -0.28
#  59   -2.20   -0.24    0.04    1.16   -0.06    0.00    0.00      -1.29    5.25   -0.28
#  60   -2.68   -0.18    0.03    1.43   -0.04    0.00    0.00      -1.44    8.67   -0.23
#  61   -5.63   -0.42    0.31    2.21   -0.07    0.00    0.00      -3.60    8.90   -0.28
#  62   -2.40   -0.11    0.00    0.43   -0.03    0.00    0.00      -2.09    4.25   -0.28
#  63   -1.52   -0.01    0.00    1.78    0.15    0.00    0.00       0.40   14.77    1.22
#  64   -1.31   -0.16    0.01    0.47   -0.04    0.00    0.00      -1.03    3.17   -0.27
#  65   -0.12   -0.49    0.47    0.89   -0.07    0.00    0.00       0.68    3.56   -0.27
#  66   -2.19   -0.33    0.06    1.57   -0.07    0.00    0.00      -0.96    5.13   -0.22
#  67   -2.75   -0.57    0.09    1.49   -0.16    0.00    0.00      -1.90    2.62   -0.28
#  68   -2.63   -0.71    0.37    0.67   -0.14    0.00    0.00      -2.45    1.30   -0.28
#  69   -1.10   -0.33    0.06    0.44   -0.11    0.00    0.00      -1.04    1.16   -0.28
#  70   -0.49   -0.26    0.02    0.23   -0.09    0.00    0.00      -0.59    0.76   -0.28
#  71    0.08   -0.55    0.24    0.19   -0.09    0.00    0.00      -0.12    0.59   -0.28
#  72   -0.48   -0.18    0.02    0.18   -0.04    0.00    0.00      -0.50    1.21   -0.26

@<TRIPOS>MOLECULE
          T526186        99
   72    74     0     0     0



@<TRIPOS>ATOM
      1 C1         10.4283   -11.0457    87.1521 C.3        1          -0.1091
      2 C2         10.8981   -11.1822    85.7267 C.ar       1          -0.1052
      3 C3         10.7368   -12.3800    85.0572 C.ar       1          -0.0797
      4 C4         11.1680   -12.5060    83.7498 C.ar       1          -0.1384
      5 C5         11.7612   -11.4341    83.1085 C.ar       1          -0.0868
      6 C6         11.9245   -10.2344    83.7733 C.ar       1          -0.2052
      7 C7         11.4877   -10.1036    85.0838 C.ar       1           0.1104
      8 O1         11.6420    -8.9227    85.7381 O.3        1          -0.2987
      9 C8         11.6132    -7.7336    84.9461 C.3        1           0.0297
     10 C9         11.0607    -6.5772    85.7819 C.3        1           0.0863
     11 O2         12.0932    -6.0640    86.6262 O.3        1          -0.5408
     12 C10         9.9002    -7.0794    86.6430 C.3        1          -0.0464
     13 N1          9.3698    -5.9691    87.4457 N.4        1          -0.5018
     14 H1         10.0988    -5.6068    88.0418 H          1           0.4400
     15 H2          9.0419    -5.2377    86.8327 H          1           0.4318
     16 C11         8.2554    -6.4512    88.2724 C.3        1           0.0194
     17 C12         7.3965    -5.2641    88.7132 C.3        1          -0.1417
     18 C13         6.2358    -5.7665    89.5744 C.3        1          -0.1401
     19 C14         6.7888    -6.4819    90.8085 C.3        1           0.0191
     20 C15         7.6477    -7.6690    90.3678 C.3        1          -0.1411
     21 C16         8.8083    -7.1668    89.5066 C.3        1          -0.1401
     22 N2          5.6744    -6.9641    91.6353 N.4        1          -0.5019
     23 H3          4.9434    -6.2687    91.6532 H          1           0.4369
     24 H4          5.3132    -7.8219    91.2457 H          1           0.4351
     25 C17         6.1501    -7.2096    93.0033 C.3        1          -0.0463
     26 C18         4.9895    -7.7117    93.8644 C.3        1           0.0859
     27 O3          4.4779    -8.9266    93.3129 O.3        1          -0.5406
     28 C19         5.4849    -7.9673    95.2893 C.3        1           0.0298
     29 O4          6.7821    -8.5648    95.2426 O.3        1          -0.2988
     30 C20         7.3694    -8.8582    96.4325 C.ar       1           0.1104
     31 C21         7.6257    -7.8483    97.3487 C.ar       1          -0.2052
     32 C22         8.2222    -8.1492    98.5577 C.ar       1          -0.0868
     33 C23         8.5639    -9.4558    98.8552 C.ar       1          -0.1384
     34 C24         8.3100   -10.4637    97.9437 C.ar       1          -0.0797
     35 C25         7.7083   -10.1687    96.7355 C.ar       1          -0.1052
     36 C26         7.4261   -11.2689    95.7449 C.3        1          -0.1091
     37 H5          9.9957   -11.9894    87.4840 H          1           0.0720
     38 H6         11.2739   -10.7892    87.7904 H          1           0.0710
     39 H7          9.6756   -10.2596    87.2128 H          1           0.0668
     40 H8         10.2737   -13.2186    85.5558 H          1           0.1364
     41 H9         11.0416   -13.4435    83.2285 H          1           0.1315
     42 H10        12.0977   -11.5352    82.0872 H          1           0.1287
     43 H11        12.3878    -9.3975    83.2720 H          1           0.1211
     44 H12        12.6234    -7.4926    84.6155 H          1           0.0789
     45 H13        10.9743    -7.8912    84.0770 H          1           0.0761
     46 H14        10.7065    -5.7870    85.1198 H          1           0.1355
     47 H15        11.8134    -5.3267    87.1859 H          1           0.3918
     48 H16         9.1127    -7.4708    85.9991 H          1           0.1471
     49 H17        10.2544    -7.8694    87.3052 H          1           0.1433
     50 H18         7.6464    -7.1449    87.6928 H          1           0.1475
     51 H19         8.0055    -4.5706    89.2929 H          1           0.1030
     52 H20         7.0024    -4.7544    87.8340 H          1           0.1105
     53 H21         5.6239    -4.9207    89.8884 H          1           0.1128
     54 H22         5.6269    -6.4600    88.9946 H          1           0.1025
     55 H23         7.3978    -5.7882    91.3882 H          1           0.1479
     56 H24         8.0416    -8.1786    91.2470 H          1           0.1098
     57 H25         7.0387    -8.3626    89.7879 H          1           0.1029
     58 H26         9.4202    -8.0123    89.1926 H          1           0.1128
     59 H27         9.4173    -6.4730    90.0864 H          1           0.1024
     60 H28         6.9398    -7.9608    92.9841 H          1           0.1413
     61 H29         6.5404    -6.2828    93.4240 H          1           0.1494
     62 H30         4.1997    -6.9606    93.8836 H          1           0.1366
     63 H31         4.1455    -8.8389    92.4091 H          1           0.3901
     64 H32         5.5393    -7.0224    95.8299 H          1           0.0754
     65 H33         4.7940    -8.6385    95.7993 H          1           0.0798
     66 H34         7.3593    -6.8276    97.1168 H          1           0.1211
     67 H35         8.4222    -7.3634    99.2711 H          1           0.1287
     68 H36         9.0302    -9.6891    99.8009 H          1           0.1315
     69 H37         8.5781   -11.4833    98.1782 H          1           0.1364
     70 H38         7.7593   -12.2219    96.1558 H          1           0.0717
     71 H39         6.3552   -11.3133    95.5465 H          1           0.0710
     72 H40         7.9595   -11.0671    94.8162 H          1           0.0670
@<TRIPOS>BOND
     1    1    2 1
     2    1   37 1
     3    1   38 1
     4    1   39 1
     5    2    7 ar
     6    2    3 ar
     7    3    4 ar
     8    3   40 1
     9    4    5 ar
    10    4   41 1
    11    5    6 ar
    12    5   42 1
    13    6    7 ar
    14    6   43 1
    15    7    8 1
    16    8    9 1
    17    9   10 1
    18    9   44 1
    19    9   45 1
    20   10   11 1
    21   10   12 1
    22   10   46 1
    23   11   47 1
    24   12   13 1
    25   12   48 1
    26   12   49 1
    27   13   14 1
    28   13   15 1
    29   13   16 1
    30   16   21 1
    31   16   17 1
    32   16   50 1
    33   17   18 1
    34   17   51 1
    35   17   52 1
    36   18   19 1
    37   18   53 1
    38   18   54 1
    39   19   20 1
    40   19   22 1
    41   19   55 1
    42   20   21 1
    43   20   56 1
    44   20   57 1
    45   21   58 1
    46   21   59 1
    47   22   23 1
    48   22   24 1
    49   22   25 1
    50   25   26 1
    51   25   60 1
    52   25   61 1
    53   26   27 1
    54   26   28 1
    55   26   62 1
    56   27   63 1
    57   28   29 1
    58   28   64 1
    59   28   65 1
    60   29   30 1
    61   30   35 ar
    62   30   31 ar
    63   31   32 ar
    64   31   66 1
    65   32   33 ar
    66   32   67 1
    67   33   34 ar
    68   33   68 1
    69   34   35 ar
    70   34   69 1
    71   35   36 1
    72   36   70 1
    73   36   71 1
    74   36   72 1
##########                 Name:              T543016
##########          Protonation:                   58
##########               SMILES:   c1c(ccc(c1)F)Nc2n[nH]c(n2)C[NH2+][C@H]3CCN(CC3)Cc4cc(c(cc4)Cl)Cl
##########            Long Name:   yl]-4-piperidyl]-[[3-(4-fluoroanilino)-1H-1,2,4-triazol-5-yl]methyl]ammonium
##########          FlexRecCode: 1
##########               Number:                  399
##########   Ligand Source File: /raidb/db2/rgc/tcams/tcams-0002320.db2.gz
##########           GlobalRank: 120
##########                 Rank:                    1
##########               Setnum:                  229
##########             Matchnum:                 4445
##########                Cloud:                    1
##########        Electrostatic:           -52.321991
##########        Van der Waals:           -22.988373
##########  Ligand Polar Desolv:            11.072006
########## Ligand Apolar Desolv:            -3.417394
##########      Internal Energy:             0.000000
##########      Receptor Energy: 0.0
########## Receptor Desolvation:             0.000000
########## Receptor Hydrophobic:             0.000000
##########         Total Energy: -67.66
##########        Ligand Charge:             1.000000
##########            Arbitrary:    +999.9990
##########     heavy atom count:   30
##########           pose count:    1
##########        Ligand Energy:             0.000000
# num electro vdwattr vdwrepu polsolv apolsol rdesolv rhydroe totalscore fullpol fullapo
#   1    2.39   -1.46    0.53   -0.15   -0.23    0.00    0.00       1.09   -0.32   -0.48
#   2   -1.66   -1.44    0.17   -0.06   -0.15    0.00    0.00      -3.13   -0.14   -0.34
#   3    1.85   -1.26    0.29   -0.28   -0.16    0.00    0.00       0.44   -0.83   -0.47
#   4    2.37   -0.86    0.05   -0.34   -0.13    0.00    0.00       1.08   -1.08   -0.42
#   5   -4.38   -1.75    0.52    0.72   -0.28    0.00    0.00      -5.16    1.81   -0.69
#   6   22.03   -3.36    4.74   -3.93    0.51    0.00    0.00      19.99   -8.29    1.08
#   7  -11.64   -1.36    0.15    2.92   -2.20    0.00    0.00     -12.13    6.51   -4.89
#   8    5.03   -1.80    0.32   -3.08    0.51    0.00    0.00       0.97   -6.22    1.02
#   9    6.40   -1.41    0.15   -4.16    0.30    0.00    0.00       1.27  -10.22    0.73
#  10   -5.14   -1.13    0.08    2.93   -0.79    0.00    0.00      -4.05    7.91   -2.14
#  11   -2.48   -0.94    0.12    1.46   -0.18    0.00    0.00      -2.01    3.50   -0.43
#  12   21.97   -2.25    3.07   -7.30    0.24    0.00    0.00      15.73  -18.26    0.60
#  13  -18.73   -0.03    0.00    6.46    0.20    0.00    0.00     -12.10   18.10    0.56
#  14  -26.73   -0.22    0.17    5.16    0.12    0.00    0.00     -21.50   15.00    0.34
#  15   -0.77   -0.73    0.22    0.63   -0.07    0.00    0.00      -0.71    2.62   -0.27
#  16    3.71   -0.66    0.13   -1.07   -0.06    0.00    0.00       2.05   -4.29   -0.23
#  17   -0.51   -0.31    0.01    0.12   -0.07    0.00    0.00      -0.76    0.66   -0.39
#  18    7.74   -0.35    0.01   -1.62    0.41    0.00    0.00       6.20  -12.49    3.16
#  19   -2.03   -0.39    0.04    0.35   -0.07    0.00    0.00      -2.10    1.86   -0.39
#  20    0.98   -0.39    0.02   -0.09   -0.05    0.00    0.00       0.47   -0.59   -0.34
#  21    0.46   -0.18    0.00   -0.07   -0.03    0.00    0.00       0.17   -1.02   -0.45
#  22    0.24   -0.24    0.01   -0.11   -0.04    0.00    0.00      -0.14   -1.13   -0.46
#  23    0.08   -0.56    0.05   -0.11   -0.05    0.00    0.00      -0.59   -0.59   -0.29
#  24    0.10   -2.06    0.67   -0.16   -0.27    0.00    0.00      -1.72   -0.54   -0.95
#  25    0.13   -0.93    0.12   -0.15   -0.07    0.00    0.00      -0.90   -0.58   -0.29
#  26    0.19   -4.54    2.74   -0.25   -0.39    0.00    0.00      -2.26   -0.62   -0.95
#  27    1.27   -0.98    0.17   -0.26   -0.09    0.00    0.00       0.11   -1.07   -0.35
#  28   -0.46   -0.29    0.01    0.04   -0.06    0.00    0.00      -0.76    0.25   -0.37
#  29    4.43   -0.98    0.35   -1.04   -0.06    0.00    0.00       2.69   -3.83   -0.23
#  30   12.85   -1.18    0.08   -4.59    0.86    0.00    0.00       8.01  -11.59    2.17
#  31    3.51   -2.68    1.08   -0.59   -0.22    0.00    0.00       1.10   -1.24   -0.46
#  32    2.94   -1.63    0.17   -0.47   -0.24    0.00    0.00       0.77   -0.92   -0.47
#  33   -1.04   -0.39    0.31    0.18   -0.05    0.00    0.00      -0.99    0.94   -0.28
#  34   -2.58   -0.11    0.00    0.14   -0.02    0.00    0.00      -2.57    1.45   -0.20
#  35  -24.20   -0.37    0.48    3.01    0.27    0.00    0.00     -20.81    6.68    0.60
#  36   -4.47   -0.02    0.00    4.16    0.13    0.00    0.00      -0.20   12.91    0.41
#  37   -5.32   -0.62    0.36    2.79   -0.09    0.00    0.00      -2.88    7.15   -0.22
#  38   -4.03   -0.20    0.01    2.01   -0.06    0.00    0.00      -2.26   10.13   -0.28
#  39   -2.90   -0.10    0.00    0.86   -0.03    0.00    0.00      -2.16    8.69   -0.28
#  40   -3.66   -0.46    0.33    1.27   -0.05    0.00    0.00      -2.57    5.02   -0.21
#  41   -2.69   -0.17    0.02    0.39   -0.05    0.00    0.00      -2.50    2.35   -0.28
#  42   -0.39   -0.08    0.00    0.16   -0.02    0.00    0.00      -0.33    2.18   -0.22
#  43   -0.66   -0.13    0.02    0.18   -0.03    0.00    0.00      -0.64    1.54   -0.28
#  44   -1.90   -0.37    0.17    0.33   -0.06    0.00    0.00      -1.84    1.47   -0.28
#  45   -1.87   -0.09    0.00    0.17   -0.03    0.00    0.00      -1.81    1.84   -0.27
#  46   -0.67   -0.02    0.00    0.07   -0.01    0.00    0.00      -0.62    2.69   -0.28
#  47   -0.28   -0.03    0.00    0.04   -0.01    0.00    0.00      -0.27    1.35   -0.28
#  48   -4.02   -0.49    0.27    0.77   -0.08    0.00    0.00      -3.54    2.83   -0.28
#  49   -0.34   -0.08    0.00    0.19   -0.02    0.00    0.00      -0.25    2.21   -0.24
#  50   -1.05   -0.06    0.00    0.04   -0.01    0.00    0.00      -1.08    0.65   -0.20
#  51   -3.62   -0.28    0.05    0.47   -0.07    0.00    0.00      -3.45    1.97   -0.28
#  52   -4.72   -1.03    1.67    1.22   -0.09    0.00    0.00      -2.94    4.00   -0.28
#  53   -4.54   -1.34    2.18    1.23   -0.14    0.00    0.00      -2.60    2.46   -0.28
#  54   -3.51   -0.32    0.02    0.45   -0.10    0.00    0.00      -3.47    1.20   -0.28

@<TRIPOS>MOLECULE
          T543016        58
   54    57     0     0     0



@<TRIPOS>ATOM
      1 F1         -1.4753    -3.1916    91.4315 F          1          -0.1341
      2 C1         -1.0138    -3.8197    92.5349 C.ar       1           0.0844
      3 C2          0.0911    -4.6499    92.4465 C.ar       1          -0.1217
      4 C3          0.5649    -5.2928    93.5732 C.ar       1          -0.1165
      5 C4         -0.0675    -5.1062    94.7957 C.ar       1           0.1497
      6 N1          0.4109    -5.7558    95.9382 N.pl3      1          -0.6242
      7 C5          1.7704    -6.0541    96.0541 C.2        1           0.4808
      8 N2          2.2757    -7.0743    96.7064 N.2        1          -0.3052
      9 N3          3.6707    -6.9935    96.5663 N.pl3      1          -0.4521
     10 C6          3.9163    -5.9033    95.8207 C.2        1           0.2302
     11 C7          5.2765    -5.4065    95.4033 C.3        1           0.0839
     12 N4          5.2493    -5.0420    93.9805 N.4        1          -0.5111
     13 H1          4.5657    -4.3149    93.8325 H          1           0.4289
     14 H2          6.1599    -4.7094    93.7010 H          1           0.4292
     15 C8          4.8916    -6.2207    93.1798 C.3        1           0.0253
     16 C9          6.1277    -7.1024    92.9849 C.3        1          -0.1406
     17 C10         5.7550    -8.3028    92.1119 C.3        1           0.0373
     18 N5          5.2599    -7.8309    90.8123 N.3        1          -0.5281
     19 C11         6.3058    -7.0998    90.0844 C.3        1           0.0957
     20 C12         5.9628    -7.0602    88.6175 C.ar       1          -0.0765
     21 C13         5.5157    -8.2034    87.9813 C.ar       1          -0.0775
     22 C14         5.2008    -8.1684    86.6362 C.ar       1          -0.0948
     23 C15         5.3323    -6.9888    85.9254 C.ar       1          -0.0264
     24 Cl1         4.9364    -6.9440    84.2358 Cl         1          -0.0359
     25 C16         5.7796    -5.8438    86.5626 C.ar       1          -0.0325
     26 Cl2         5.9447    -4.3627    85.6723 Cl         1          -0.0401
     27 C17         6.0898    -5.8796    87.9103 C.ar       1          -0.0991
     28 C18         4.0531    -7.0083    90.9667 C.3        1           0.0290
     29 C19         4.3795    -5.7727    91.8085 C.3        1          -0.1374
     30 N6          2.7703    -5.3506    95.5141 N.2        1          -0.5246
     31 C20        -1.1753    -4.2730    94.8819 C.ar       1          -0.1194
     32 C21        -1.6426    -3.6280    93.7536 C.ar       1          -0.1210
     33 H3          0.5822    -4.7950    91.4957 H          1           0.1420
     34 H4          1.4264    -5.9405    93.5038 H          1           0.1448
     35 H5         -0.2015    -5.9992    96.6500 H          1           0.4312
     36 H6          4.3275    -7.6044    96.9356 H          1           0.4510
     37 H7          5.5419    -4.5320    95.9973 H          1           0.1698
     38 H8          6.0150    -6.1920    95.5632 H          1           0.1614
     39 H9          4.1146    -6.7879    93.6923 H          1           0.1512
     40 H10         6.9131    -6.5261    92.4959 H          1           0.0975
     41 H11         6.4819    -7.4528    93.9543 H          1           0.1267
     42 H12         6.6348    -8.9281    91.9599 H          1           0.0335
     43 H13         4.9776    -8.8844    92.6072 H          1           0.1082
     44 H14         6.3729    -6.0823    90.4696 H          1           0.0546
     45 H15         7.2628    -7.6036    90.2204 H          1           0.1006
     46 H16         5.4129    -9.1245    88.5359 H          1           0.1417
     47 H17         4.8524    -9.0620    86.1397 H          1           0.1476
     48 H18         6.4348    -4.9858    88.4089 H          1           0.1361
     49 H19         3.6991    -6.6952    89.9845 H          1           0.0295
     50 H20         3.2775    -7.5913    91.4632 H          1           0.1082
     51 H21         3.4803    -5.1697    91.9344 H          1           0.1269
     52 H22         5.1472    -5.1829    91.3076 H          1           0.0968
     53 H23        -1.6687    -4.1264    95.8315 H          1           0.1394
     54 H24        -2.5016    -2.9769    93.8210 H          1           0.1455
@<TRIPOS>BOND
     1    1    2 1
     2    2   32 ar
     3    2    3 ar
     4    3    4 ar
     5    3   33 1
     6    4    5 ar
     7    4   34 1
     8    5    6 1
     9    5   31 ar
    10    6    7 1
    11    6   35 1
    12    7   30 1
    13    7    8 2
    14    8    9 1
    15    9   10 1
    16    9   36 1
    17   10   11 1
    18   10   30 2
    19   11   12 1
    20   11   37 1
    21   11   38 1
    22   12   13 1
    23   12   14 1
    24   12   15 1
    25   15   29 1
    26   15   16 1
    27   15   39 1
    28   16   17 1
    29   16   40 1
    30   16   41 1
    31   17   18 1
    32   17   42 1
    33   17   43 1
    34   18   19 1
    35   18   28 1
    36   19   20 1
    37   19   44 1
    38   19   45 1
    39   20   27 ar
    40   20   21 ar
    41   21   22 ar
    42   21   46 1
    43   22   23 ar
    44   22   47 1
    45   23   24 1
    46   23   25 ar
    47   25   26 1
    48   25   27 ar
    49   27   48 1
    50   28   29 1
    51   28   49 1
    52   28   50 1
    53   29   51 1
    54   29   52 1
    55   31   32 ar
    56   31   53 1
    57   32   54 1
##########                 Name:              T538447
##########          Protonation:                   16
##########               SMILES:   Cc1c2[nH]c3c(c2ccc1)C[C@@H]([NH2+][C@@]34CCN(CC4)Cc5ccccc5)C(=O)NCc6ccccc6
##########            Long Name:   ro[2,3,4,9-tetrahydropyrido[3,4-b]indol-2-ium-1,4'-piperidine]-3-carboxamide
##########          FlexRecCode: 1
##########               Number:                  156
##########   Ligand Source File: /raidb/db2/rgc/tcams/tcams-0001789.db2.gz
##########           GlobalRank: 121
##########                 Rank:                    1
##########               Setnum:                   64
##########             Matchnum:                 2918
##########                Cloud:                    1
##########        Electrostatic:           -43.232327
##########        Van der Waals:           -26.214556
##########  Ligand Polar Desolv:             4.891473
########## Ligand Apolar Desolv:            -3.095181
##########      Internal Energy:             0.000000
##########      Receptor Energy: 0.0
########## Receptor Desolvation:             0.000000
########## Receptor Hydrophobic:             0.000000
##########         Total Energy: -67.65
##########        Ligand Charge:             1.000000
##########            Arbitrary:    +999.9990
##########     heavy atom count:   36
##########           pose count:    1
##########        Ligand Energy:             0.000000
# num electro vdwattr vdwrepu polsolv apolsol rdesolv rhydroe totalscore fullpol fullapo
#   1    1.32   -1.09    0.28   -0.44   -0.08    0.00    0.00       0.00   -1.19   -0.21
#   2    0.62   -1.19    0.11   -0.48   -0.16    0.00    0.00      -1.10   -1.26   -0.41
#   3   -0.69   -1.16    0.17    0.30   -0.23    0.00    0.00      -1.62    0.96   -0.76
#   4    4.06   -0.99    0.15   -2.51    0.22    0.00    0.00       0.93  -10.06    0.88
#   5   -0.49   -0.99    0.16    0.42   -0.14    0.00    0.00      -1.05    1.61   -0.55
#   6    2.17   -1.13    0.15   -1.03   -0.14    0.00    0.00       0.02   -3.21   -0.43
#   7    1.12   -0.79    0.08   -0.57   -0.09    0.00    0.00      -0.25   -1.44   -0.23
#   8   -0.17   -0.66    0.05    0.48   -0.08    0.00    0.00      -0.38    1.43   -0.25
#   9   17.10   -1.50    1.25   -4.08    0.11    0.00    0.00      12.89  -14.13    0.39
#  10  -17.65   -0.03    0.00    2.94    0.11    0.00    0.00     -14.63   14.73    0.53
#  11  -21.60   -0.09    0.02    4.82    0.16    0.00    0.00     -16.68   15.29    0.51
#  12   -3.22   -0.54    0.06    1.28   -0.01    0.00    0.00      -2.43    5.22   -0.06
#  13    1.83   -0.32    0.02   -0.64   -0.04    0.00    0.00       0.85   -3.54   -0.20
#  14   -0.37   -0.28    0.03    0.13   -0.05    0.00    0.00      -0.54    0.98   -0.38
#  15    5.33   -0.24    0.01   -1.06    0.33    0.00    0.00       4.36   -9.99    3.14
#  16   -0.49   -0.09    0.00    0.09   -0.02    0.00    0.00      -0.51    1.50   -0.39
#  17    0.25   -0.09    0.00   -0.04   -0.02    0.00    0.00       0.11   -0.88   -0.34
#  18    0.07   -0.07    0.00   -0.04   -0.02    0.00    0.00      -0.05   -1.18   -0.45
#  19    0.10   -0.05    0.00   -0.04   -0.02    0.00    0.00      -0.01   -1.27   -0.47
#  20    0.13   -0.08    0.00   -0.05   -0.02    0.00    0.00      -0.02   -1.23   -0.47
#  21    0.18   -0.13    0.00   -0.07   -0.03    0.00    0.00      -0.04   -1.32   -0.47
#  22    0.47   -0.12    0.00   -0.07   -0.02    0.00    0.00       0.26   -1.31   -0.36
#  23   -0.73   -0.38    0.04    0.15   -0.07    0.00    0.00      -0.99    0.81   -0.37
#  24    3.35   -0.96    0.31   -0.89   -0.05    0.00    0.00       1.76   -3.34   -0.19
#  25   -8.52   -0.82    0.05    3.73   -0.18    0.00    0.00      -5.74   12.77   -0.60
#  26    2.44   -1.61    0.93   -3.55    0.11    0.00    0.00      -1.66  -11.81    0.38
#  27   14.50   -0.80    0.02   -4.85    0.73    0.00    0.00       9.60  -15.29    2.29
#  28   -3.10   -0.63    0.04    1.14   -0.17    0.00    0.00      -2.72    3.03   -0.44
#  29    2.96   -0.96    0.09   -0.47   -0.12    0.00    0.00       1.49   -1.48   -0.37
#  30    2.88   -1.91    0.58   -0.58   -0.19    0.00    0.00       0.78   -1.37   -0.45
#  31    3.10   -1.66    0.24   -0.70   -0.21    0.00    0.00       0.76   -1.57   -0.47
#  32    2.16   -1.31    0.25   -0.54   -0.18    0.00    0.00       0.38   -1.38   -0.47
#  33    1.74   -0.92    0.13   -0.45   -0.13    0.00    0.00       0.37   -1.56   -0.47
#  34    1.46   -0.66    0.03   -0.35   -0.11    0.00    0.00       0.37   -1.39   -0.45
#  35    0.80   -1.22    0.14   -0.58   -0.15    0.00    0.00      -1.01   -1.73   -0.44
#  36    0.68   -1.65    0.37   -0.41   -0.19    0.00    0.00      -1.21   -1.02   -0.48
#  37    0.96   -1.98    0.81   -0.86   -0.22    0.00    0.00      -1.30   -1.79   -0.46
#  38    0.61   -1.39    0.12   -0.66   -0.23    0.00    0.00      -1.55   -1.31   -0.46
#  39   -0.65   -0.18    0.01    0.15   -0.05    0.00    0.00      -0.72    0.78   -0.28
#  40   -0.83   -0.44    0.20    0.28   -0.08    0.00    0.00      -0.86    1.01   -0.27
#  41   -1.16   -0.72    0.54    0.20   -0.10    0.00    0.00      -1.23    0.55   -0.28
#  42   -2.55   -0.01    0.00    0.90    0.04    0.00    0.00      -1.63    7.63    0.34
#  43   -1.80   -0.25    0.03    0.83   -0.07    0.00    0.00      -1.26    3.41   -0.28
#  44   -3.05   -0.38    0.07    1.41   -0.10    0.00    0.00      -2.04    3.81   -0.27
#  45   -5.40   -0.29    0.03    1.87   -0.06    0.00    0.00      -3.85    6.79   -0.22
#  46   -0.72   -0.13    0.02    0.40   -0.03    0.00    0.00      -0.47    3.44   -0.28
#  47   -2.03   -0.08    0.00    0.34   -0.02    0.00    0.00      -1.79    4.34   -0.28
#  48   -0.11   -0.16    0.04    0.07   -0.03    0.00    0.00      -0.18    0.55   -0.20
#  49   -0.23   -0.07    0.01    0.14   -0.02    0.00    0.00      -0.17    1.85   -0.29
#  50   -0.26   -0.02    0.00    0.02   -0.01    0.00    0.00      -0.27    0.73   -0.28
#  51   -0.29   -0.03    0.00    0.04   -0.01    0.00    0.00      -0.29    1.38   -0.27
#  52   -0.07   -0.01    0.00    0.03   -0.01    0.00    0.00      -0.06    1.66   -0.28
#  53   -0.09   -0.01    0.00    0.02    0.00    0.00    0.00      -0.08    1.08   -0.28
#  54   -0.14   -0.02    0.00    0.02   -0.01    0.00    0.00      -0.14    0.91   -0.28
#  55   -0.23   -0.04    0.00    0.05   -0.01    0.00    0.00      -0.23    1.24   -0.28
#  56   -0.88   -0.03    0.00    0.07   -0.01    0.00    0.00      -0.86    1.85   -0.28
#  57   -0.44   -0.15    0.03    0.06   -0.02    0.00    0.00      -0.52    0.55   -0.20
#  58   -1.48   -0.09    0.01    0.11   -0.02    0.00    0.00      -1.47    1.14   -0.20
#  59   -3.84   -0.40    0.23    0.96   -0.07    0.00    0.00      -3.11    3.89   -0.28
#  60   -2.58   -1.13    3.01    1.15   -0.08    0.00    0.00       0.38    3.51   -0.23
#  61  -10.80   -0.01    0.00    1.86    0.10    0.00    0.00      -8.86   10.28    0.54
#  62   -0.90   -0.22    0.03    0.27   -0.06    0.00    0.00      -0.88    1.29   -0.28
#  63   -2.17   -0.29    0.04    0.46   -0.10    0.00    0.00      -2.05    1.33   -0.28
#  64   -4.04   -0.63    0.31    0.98   -0.12    0.00    0.00      -3.49    2.35   -0.28
#  65   -3.21   -0.42    0.07    0.53   -0.11    0.00    0.00      -3.14    1.36   -0.28
#  66   -2.71   -0.27    0.03    0.27   -0.07    0.00    0.00      -2.76    1.00   -0.28
#  67   -0.99   -0.13    0.01    0.19   -0.04    0.00    0.00      -0.97    1.31   -0.28
#  68   -1.05   -0.08    0.00    0.15   -0.02    0.00    0.00      -1.00    2.26   -0.28
#  69   -1.72   -0.36    0.07    0.81   -0.08    0.00    0.00      -1.28    2.66   -0.28
#  70   -1.07   -0.66    0.80    0.44   -0.12    0.00    0.00      -0.60    1.06   -0.28
#  71   -1.13   -0.31    0.02    0.36   -0.13    0.00    0.00      -1.19    0.79   -0.28

@<TRIPOS>MOLECULE
          T538447        16
   71    76     0     0     0



@<TRIPOS>ATOM
      1 C1          7.9842   -12.7357    94.3359 C.3        1          -0.1133
      2 C2          7.8271   -11.6663    95.3863 C.ar       1          -0.0900
      3 C3          7.3912   -10.3828    95.0653 C.ar       1           0.1105
      4 N1          7.0107    -9.8077    93.8863 N.pl3      1          -0.5586
      5 C4          6.6785    -8.4916    94.0832 C.2        1           0.0376
      6 C5          6.8294    -8.1935    95.3934 C.2        1          -0.1591
      7 C6          6.5577    -6.8286    95.9711 C.3        1          -0.0557
      8 C7          5.5294    -6.1701    95.0468 C.3        1           0.0063
      9 N2          5.9614    -6.1911    93.6601 N.4        1          -0.4838
     10 H1          5.2592    -5.7166    93.0907 H          1           0.4344
     11 H2          6.8094    -5.6279    93.5733 H          1           0.4404
     12 C8          6.2284    -7.4967    93.0472 C.3        1           0.1461
     13 C9          4.9740    -7.9837    92.3256 C.3        1          -0.1355
     14 C10         5.2609    -9.2288    91.4902 C.3        1           0.0585
     15 N3          6.3306    -8.9479    90.5272 N.3        1          -0.5344
     16 C11         6.5455   -10.0858    89.6233 C.3        1           0.0985
     17 C12         5.4993   -10.0703    88.5387 C.ar       1          -0.0919
     18 C13         5.0727   -11.2571    87.9727 C.ar       1          -0.0949
     19 C14         4.1131   -11.2428    86.9778 C.ar       1          -0.1169
     20 C15         3.5800   -10.0415    86.5490 C.ar       1          -0.1112
     21 C16         4.0056    -8.8550    87.1158 C.ar       1          -0.1184
     22 C17         4.9622    -8.8696    88.1137 C.ar       1          -0.1183
     23 C18         7.5741    -8.5597    91.1984 C.3        1           0.0516
     24 C19         7.3556    -7.2952    92.0219 C.3        1          -0.1307
     25 C20         4.1812    -6.8070    95.2374 C.2        1           0.5072
     26 O1          4.1003    -7.9883    95.4997 O.2        1          -0.5239
     27 N4          3.0624    -6.0652    95.1169 N.am       1          -0.6947
     28 C21         1.7485    -6.6861    95.3026 C.3        1           0.1610
     29 C22         0.7295    -5.9681    94.4556 C.ar       1          -0.1278
     30 C23         0.0406    -4.8863    94.9717 C.ar       1          -0.0978
     31 C24        -0.8942    -4.2278    94.1948 C.ar       1          -0.1191
     32 C25        -1.1396    -4.6506    92.9018 C.ar       1          -0.1007
     33 C26        -0.4499    -5.7317    92.3854 C.ar       1          -0.1192
     34 C27         0.4878    -6.3877    93.1608 C.ar       1          -0.0982
     35 C28         7.2687    -9.3920    96.0724 C.ar       1          -0.0908
     36 C29         7.5523    -9.6756    97.4118 C.ar       1          -0.0716
     37 C30         7.9675   -10.9520    97.7004 C.ar       1          -0.1273
     38 C31         8.1059   -11.9195    96.7188 C.ar       1          -0.0852
     39 H3          7.7146   -12.3296    93.3609 H          1           0.0766
     40 H4          9.0199   -13.0746    94.3146 H          1           0.0558
     41 H5          7.3317   -13.5761    94.5726 H          1           0.0807
     42 H6          6.9878   -10.2738    93.0378 H          1           0.4166
     43 H7          6.1524    -6.9224    96.9782 H          1           0.1085
     44 H8          7.4760    -6.2413    95.9911 H          1           0.1258
     45 H9          5.4392    -5.1117    95.3598 H          1           0.1679
     46 H10         4.1959    -8.2269    93.0522 H          1           0.1012
     47 H11         4.6030    -7.1888    91.6720 H          1           0.1085
     48 H12         5.5340   -10.0620    92.1295 H          1           0.0382
     49 H13         4.3535    -9.5012    90.9376 H          1           0.1050
     50 H14         7.5357   -10.0110    89.1741 H          1           0.0476
     51 H15         6.4712   -11.0162    90.1863 H          1           0.0944
     52 H16         5.4895   -12.1955    88.3076 H          1           0.1237
     53 H17         3.7803   -12.1701    86.5352 H          1           0.1259
     54 H18         2.8306   -10.0308    85.7713 H          1           0.1254
     55 H19         3.5891    -7.9166    86.7807 H          1           0.1241
     56 H20         5.2922    -7.9426    88.5590 H          1           0.1156
     57 H21         7.9257    -9.3691    91.8335 H          1           0.0420
     58 H22         8.3382    -8.3626    90.4373 H          1           0.1090
     59 H23         7.0872    -6.4676    91.3625 H          1           0.1080
     60 H24         8.2740    -7.0410    92.5552 H          1           0.0964
     61 H25         3.1272    -5.1204    94.9072 H          1           0.4117
     62 H26         1.7960    -7.7333    95.0041 H          1           0.0888
     63 H27         1.4604    -6.6199    96.3517 H          1           0.0892
     64 H28         0.2323    -4.5561    95.9819 H          1           0.1249
     65 H29        -1.4328    -3.3832    94.5982 H          1           0.1287
     66 H30        -1.8704    -4.1364    92.2952 H          1           0.1287
     67 H31        -0.6420    -6.0622    91.3754 H          1           0.1286
     68 H32         1.0293    -7.2299    92.7562 H          1           0.1245
     69 H33         7.4455    -8.9276    98.1835 H          1           0.1348
     70 H34         8.1907   -11.2102    98.7249 H          1           0.1288
     71 H35         8.4450   -12.9050    97.0021 H          1           0.1312
@<TRIPOS>BOND
     1    1    2 1
     2    1   39 1
     3    1   40 1
     4    1   41 1
     5    2   38 ar
     6    2    3 ar
     7    3   35 ar
     8    3    4 1
     9    4    5 1
    10    4   42 1
    11    5   12 1
    12    5    6 2
    13    6    7 1
    14    6   35 1
    15    7    8 1
    16    7   43 1
    17    7   44 1
    18    8    9 1
    19    8   25 1
    20    8   45 1
    21    9   10 1
    22    9   11 1
    23    9   12 1
    24   12   24 1
    25   12   13 1
    26   13   14 1
    27   13   46 1
    28   13   47 1
    29   14   15 1
    30   14   48 1
    31   14   49 1
    32   15   16 1
    33   15   23 1
    34   16   17 1
    35   16   50 1
    36   16   51 1
    37   17   22 ar
    38   17   18 ar
    39   18   19 ar
    40   18   52 1
    41   19   20 ar
    42   19   53 1
    43   20   21 ar
    44   20   54 1
    45   21   22 ar
    46   21   55 1
    47   22   56 1
    48   23   24 1
    49   23   57 1
    50   23   58 1
    51   24   59 1
    52   24   60 1
    53   25   26 2
    54   25   27 am
    55   27   28 1
    56   27   61 1
    57   28   29 1
    58   28   62 1
    59   28   63 1
    60   29   34 ar
    61   29   30 ar
    62   30   31 ar
    63   30   64 1
    64   31   32 ar
    65   31   65 1
    66   32   33 ar
    67   32   66 1
    68   33   34 ar
    69   33   67 1
    70   34   68 1
    71   35   36 ar
    72   36   37 ar
    73   36   69 1
    74   37   38 ar
    75   37   70 1
    76   38   71 1
##########                 Name:              T536896
##########          Protonation:                   35
##########               SMILES:   [H]/N=C/1\NC(=[NH2+])N[C@H](N1OCc2cccc3c2cccc3)CC
##########            Long Name:   4R)-4-ethyl-6-imino-5-(1-naphthylmethoxy)-1,3,5-triazinan-2-ylidene]ammonium
##########          FlexRecCode: 1
##########               Number:                   33
##########   Ligand Source File: /raidb/db2/rgc/tcams/tcams-0001542.db2.gz
##########           GlobalRank: 122
##########                 Rank:                    1
##########               Setnum:                  144
##########             Matchnum:                 2587
##########                Cloud:                    1
##########        Electrostatic:           -47.085819
##########        Van der Waals:           -28.839075
##########  Ligand Polar Desolv:            12.244687
########## Ligand Apolar Desolv:            -3.956597
##########      Internal Energy:             0.000000
##########      Receptor Energy: 0.0
########## Receptor Desolvation:             0.000000
########## Receptor Hydrophobic:             0.000000
##########         Total Energy: -67.64
##########        Ligand Charge:             1.000000
##########            Arbitrary:    +999.9990
##########     heavy atom count:   22
##########           pose count:    1
##########        Ligand Energy:             0.000000
# num electro vdwattr vdwrepu polsolv apolsol rdesolv rhydroe totalscore fullpol fullapo
#   1    4.33   -1.13    0.29   -1.47   -0.09    0.00    0.00       1.92   -3.22   -0.19
#   2    2.78   -0.64    0.04   -1.19   -0.09    0.00    0.00       0.89   -3.06   -0.24
#   3   -8.31   -0.89    0.09    3.73   -0.38    0.00    0.00      -5.76    8.92   -0.91
#   4   20.81   -2.30    0.55   -9.00    0.68    0.00    0.00      10.75  -19.49    1.48
#   5  -27.88   -1.81    0.30    9.83   -2.02    0.00    0.00     -21.58   22.08   -4.53
#   6   28.33   -3.45    1.81  -10.38    0.44    0.00    0.00      16.76  -21.23    0.89
#   7  -15.01   -0.07    0.00    7.66    0.28    0.00    0.00      -7.13   16.34    0.60
#   8  -22.80   -0.09    0.01    7.37    0.28    0.00    0.00     -15.23   15.85    0.60
#   9   28.00   -2.22    1.82   -6.96    0.46    0.00    0.00      21.10  -17.38    1.15
#  10  -14.75   -0.86    0.06    3.41   -1.26    0.00    0.00     -13.39   11.91   -4.39
#  11   12.01   -0.73    0.04   -2.94    0.36    0.00    0.00       8.73  -11.64    1.42
#  12    8.99   -0.98    0.05   -3.27    0.33    0.00    0.00       5.12   -9.29    0.93
#  13    1.10   -1.09    0.08   -0.71    0.17    0.00    0.00      -0.45   -1.78    0.42
#  14   -1.10   -1.00    0.15    0.51   -0.05    0.00    0.00      -1.48    1.13   -0.11
#  15    1.22   -1.57    0.18   -0.31   -0.20    0.00    0.00      -0.69   -0.64   -0.41
#  16    0.34   -1.47    0.22   -0.19   -0.15    0.00    0.00      -1.25   -0.50   -0.40
#  17    0.58   -1.46    0.25   -0.29   -0.15    0.00    0.00      -1.07   -0.82   -0.44
#  18    0.10   -2.22    0.94   -0.33   -0.17    0.00    0.00      -1.68   -0.92   -0.47
#  19    0.56   -1.97    0.54   -0.33   -0.21    0.00    0.00      -1.41   -0.75   -0.47
#  20    0.69   -1.56    0.17   -0.35   -0.24    0.00    0.00      -1.30   -0.66   -0.46
#  21    0.43   -1.67    0.42   -0.21   -0.19    0.00    0.00      -1.21   -0.44   -0.40
#  22    1.07   -2.26    0.90   -0.42   -0.25    0.00    0.00      -0.96   -0.77   -0.46
#  23    2.23   -2.92    1.18   -0.48   -0.27    0.00    0.00      -0.27   -0.84   -0.47
#  24    1.73   -2.28    0.39   -0.52   -0.25    0.00    0.00      -0.92   -0.89   -0.44
#  25   -1.77   -0.43    0.31    0.79   -0.08    0.00    0.00      -1.18    2.75   -0.27
#  26   -2.45   -0.57    0.26    0.25   -0.13    0.00    0.00      -2.64    0.53   -0.28
#  27   -1.96   -0.33    0.06    0.42   -0.10    0.00    0.00      -1.91    1.24   -0.28
#  28   -1.00   -0.30    0.06    0.31   -0.08    0.00    0.00      -1.01    1.08   -0.27
#  29   -1.17   -0.11    0.00    0.17   -0.03    0.00    0.00      -1.14    1.58   -0.26
#  30   -3.19   -0.46    0.12    1.48   -0.11    0.00    0.00      -2.16    3.74   -0.28
#  31  -13.29   -0.09    0.00    6.25    0.25    0.00    0.00      -6.87   14.47    0.59
#  32  -26.87   -0.18    0.11    4.16    0.19    0.00    0.00     -22.59   12.94    0.59
#  33   -8.49   -0.01    0.00    0.91    0.09    0.00    0.00      -7.50    6.26    0.60
#  34   -1.52   -0.31    0.04    0.43   -0.08    0.00    0.00      -1.43    1.49   -0.27
#  35   -1.47   -0.69    1.07    0.28   -0.10    0.00    0.00      -0.89    0.76   -0.26
#  36   -0.77   -0.22    0.03    0.36   -0.05    0.00    0.00      -0.65    1.83   -0.24
#  37    0.39   -0.81    0.89    0.40   -0.08    0.00    0.00       0.80    1.42   -0.28
#  38   -1.04   -0.63    0.51    0.38   -0.11    0.00    0.00      -0.88    1.00   -0.28
#  39   -1.05   -0.35    0.03    0.38   -0.13    0.00    0.00      -1.12    0.78   -0.28
#  40   -1.14   -0.54    0.31    0.44   -0.14    0.00    0.00      -1.08    0.86   -0.28
#  41   -3.01   -1.13    1.16    0.77   -0.16    0.00    0.00      -2.37    1.32   -0.28
#  42   -2.76   -0.60    0.10    0.90   -0.14    0.00    0.00      -2.49    1.57   -0.24

@<TRIPOS>MOLECULE
          T536896        35
   42    44     0     0     0



@<TRIPOS>ATOM
      1 C1          1.2105    -5.8799    96.0165 C.3        1          -0.1545
      2 C2          2.4751    -6.6512    95.6329 C.3        1          -0.1568
      3 C3          3.6892    -6.0058    96.3040 C.3        1           0.3924
      4 N1          3.8454    -4.6189    95.8282 N.pl3      1          -0.7233
      5 C4          4.3474    -4.4428    94.5461 C.cat      1           0.7678
      6 N2          3.8288    -3.5831    93.7163 N.pl3      1          -0.7145
      7 H1          3.0701    -3.0435    93.9883 H          1           0.4507
      8 H2          4.2016    -3.4824    92.8265 H          1           0.4487
      9 N3          5.4376    -5.2376    94.1969 N.pl3      1          -0.6954
     10 C5          5.4077    -6.5530    94.6567 C.2        1           0.6091
     11 N4          5.8210    -7.5474    93.9241 N.2        1          -0.6506
     12 N5          4.9129    -6.7434    95.9394 N.pl3      1          -0.5035
     13 O1          5.5559    -7.6080    96.8583 O.3        1          -0.0888
     14 C6          6.9037    -7.2393    97.1577 C.3        1           0.0678
     15 C7          7.6376    -8.4302    97.7182 C.ar       1          -0.0863
     16 C8          7.5130    -9.6890    97.1059 C.ar       1          -0.0381
     17 C9          6.7103    -9.8702    95.9666 C.ar       1          -0.1200
     18 C10         6.6137   -11.1039    95.4001 C.ar       1          -0.1030
     19 C11         7.2999   -12.1938    95.9329 C.ar       1          -0.1155
     20 C12         8.0861   -12.0561    97.0352 C.ar       1          -0.0985
     21 C13         8.2107   -10.7973    97.6476 C.ar       1          -0.0506
     22 C14         9.0144   -10.6158    98.7861 C.ar       1          -0.0928
     23 C15         9.1117    -9.3819    99.3520 C.ar       1          -0.1193
     24 C16         8.4289    -8.2911    98.8166 C.ar       1          -0.0924
     25 H3          0.3455    -6.3397    95.5384 H          1           0.0553
     26 H4          1.0838    -5.9052    97.0987 H          1           0.0764
     27 H5          1.3015    -4.8454    95.6854 H          1           0.0721
     28 H6          2.3842    -7.6856    95.9641 H          1           0.1036
     29 H7          2.6019    -6.6258    94.5506 H          1           0.0703
     30 H8          3.5612    -6.0142    97.3864 H          1           0.1519
     31 H9          3.6074    -3.8623    96.3866 H          1           0.4513
     32 H10         6.1735    -4.8957    93.6652 H          1           0.4518
     33 H11         6.1620    -7.3831    93.0310 H          1           0.3693
     34 H12         7.3991    -6.9027    96.2472 H          1           0.0758
     35 H13         6.9054    -6.4331    97.8914 H          1           0.0931
     36 H14         6.1725    -9.0348    95.5431 H          1           0.1230
     37 H15         5.9959   -11.2404    94.5249 H          1           0.1262
     38 H16         7.2061   -13.1622    95.4640 H          1           0.1280
     39 H17         8.6113   -12.9098    97.4374 H          1           0.1321
     40 H18         9.5516   -11.4513    99.2101 H          1           0.1323
     41 H19         9.7296    -9.2453   100.2271 H          1           0.1281
     42 H20         8.5265    -7.3217    99.2826 H          1           0.1268
@<TRIPOS>BOND
     1    1    2 1
     2    1   25 1
     3    1   26 1
     4    1   27 1
     5    2    3 1
     6    2   28 1
     7    2   29 1
     8    3   12 1
     9    3    4 1
    10    3   30 1
    11    4    5 1
    12    4   31 1
    13    5    6 2
    14    5    9 1
    15    6    7 1
    16    6    8 1
    17    9   10 1
    18    9   32 1
    19   10   11 2
    20   10   12 1
    21   11   33 1
    22   12   13 1
    23   13   14 1
    24   14   15 1
    25   14   34 1
    26   14   35 1
    27   15   24 ar
    28   15   16 ar
    29   16   21 ar
    30   16   17 ar
    31   17   18 ar
    32   17   36 1
    33   18   19 ar
    34   18   37 1
    35   19   20 ar
    36   19   38 1
    37   20   21 ar
    38   20   39 1
    39   21   22 ar
    40   22   23 ar
    41   22   40 1
    42   23   24 ar
    43   23   41 1
    44   24   42 1
##########                 Name:              T535368
##########          Protonation:                   15
##########               SMILES:   CC1(NC(=[NH2+])NC(=[NH2+])N1OCc2c3ccccc3ccc2OC)C
##########            Long Name:   -methoxy-1-naphthyl)methoxy]-6,6-dimethyl-1,3,5-triazinan-2-ylidene]ammonium
##########          FlexRecCode: 1
##########               Number:                  183
##########   Ligand Source File: /raidb/db2/rgc/tcams/tcams-0001348.db2.gz
##########           GlobalRank: 123
##########                 Rank:                    1
##########               Setnum:                   19
##########             Matchnum:                  987
##########                Cloud:                    1
##########        Electrostatic:           -65.456596
##########        Van der Waals:           -23.067307
##########  Ligand Polar Desolv:            23.505789
########## Ligand Apolar Desolv:            -2.562436
##########      Internal Energy:             0.000000
##########      Receptor Energy: 0.0
########## Receptor Desolvation:             0.000000
########## Receptor Hydrophobic:             0.000000
##########         Total Energy: -67.58
##########        Ligand Charge:             2.000000
##########            Arbitrary:    +999.9990
##########     heavy atom count:   24
##########           pose count:    1
##########        Ligand Energy:             0.000000
# num electro vdwattr vdwrepu polsolv apolsol rdesolv rhydroe totalscore fullpol fullapo
#   1   -0.13   -0.15    0.00    0.03    0.00    0.00    0.00      -0.24    0.27    0.03
#   2    1.05   -0.45    0.08   -0.94    0.12    0.00    0.00      -0.14   -6.50    0.82
#   3   -0.59   -1.09    0.45    0.55   -0.07    0.00    0.00      -0.75    2.60   -0.31
#   4    0.72   -1.19    0.31   -0.77   -0.10    0.00    0.00      -1.03   -3.07   -0.39
#   5   -0.69   -0.54    0.06    0.57   -0.03    0.00    0.00      -0.63    2.36   -0.12
#   6    0.17   -1.39    0.84   -0.79    0.10    0.00    0.00      -1.08   -3.42    0.42
#   7    6.78   -0.69    0.06   -4.33    0.18    0.00    0.00       2.00  -20.62    0.87
#   8  -17.54   -0.68    0.06    7.60   -0.93    0.00    0.00     -11.50   35.46   -4.36
#   9   10.89   -0.44    0.02   -5.39    0.16    0.00    0.00       5.23  -30.73    0.89
#  10   -3.89    0.00    0.00    1.34    0.03    0.00    0.00      -2.53   20.87    0.40
#  11   -8.34   -0.01    0.00    2.63    0.06    0.00    0.00      -5.65   24.53    0.60
#  12   27.74   -2.51    2.43   -9.95    0.37    0.00    0.00      18.08  -30.90    1.15
#  13  -28.63   -1.77    0.41   15.70   -1.90    0.00    0.00     -16.19   37.32   -4.52
#  14   26.36   -3.69    1.58  -16.31    0.46    0.00    0.00       8.41  -31.26    0.89
#  15  -20.30   -0.12    0.02   13.24    0.32    0.00    0.00      -6.84   24.65    0.60
#  16  -17.32   -0.10    0.01   12.71    0.32    0.00    0.00      -4.38   23.73    0.60
#  17   19.53   -1.21    0.09  -12.26    0.59    0.00    0.00       6.74  -31.78    1.53
#  18   -6.82   -0.53    0.03    5.20   -0.11    0.00    0.00      -2.24   17.37   -0.38
#  19    3.41   -0.56    0.03   -2.60   -0.06    0.00    0.00       0.22   -7.90   -0.18
#  20    1.81   -1.02    0.18   -2.48   -0.06    0.00    0.00      -1.57   -6.39   -0.16
#  21   -0.05   -1.30    0.22   -0.20   -0.13    0.00    0.00      -1.46   -0.63   -0.40
#  22    1.02   -1.24    0.13   -0.84   -0.15    0.00    0.00      -1.09   -2.45   -0.44
#  23    0.55   -1.58    0.32   -1.11   -0.19    0.00    0.00      -2.01   -2.69   -0.47
#  24    0.93   -1.59    0.21   -1.50   -0.25    0.00    0.00      -2.21   -2.82   -0.47
#  25    0.58   -1.70    0.29   -1.18   -0.23    0.00    0.00      -2.24   -2.40   -0.46
#  26    0.58   -1.52    0.27   -0.82   -0.15    0.00    0.00      -1.62   -2.20   -0.40
#  27    0.16   -1.90    0.57   -0.61   -0.16    0.00    0.00      -1.93   -1.76   -0.46
#  28    1.02   -1.18    0.31   -0.95   -0.11    0.00    0.00      -0.91   -3.65   -0.43
#  29   -0.42   -0.03    0.00    0.03   -0.01    0.00    0.00      -0.42    1.06   -0.27
#  30   -1.21   -0.07    0.00    0.23   -0.02    0.00    0.00      -1.05    3.52   -0.28
#  31   -0.35   -0.03    0.00    0.02   -0.01    0.00    0.00      -0.36    0.79   -0.27
#  32   -1.05   -0.18    0.02    0.92   -0.03    0.00    0.00      -0.32    5.37   -0.16
#  33   -1.45   -0.10    0.00    0.38   -0.02    0.00    0.00      -1.19    3.77   -0.23
#  34  -29.03   -0.17    0.06    8.82    0.20    0.00    0.00     -20.12   26.22    0.59
#  35  -12.95   -0.03    0.00    6.43    0.18    0.00    0.00      -6.38   21.23    0.58
#  36   -2.70   -0.22    0.01    0.85   -0.08    0.00    0.00      -2.13    2.94   -0.27
#  37   -2.45   -0.11    0.00    0.43   -0.03    0.00    0.00      -2.16    4.39   -0.28
#  38   -0.76   -0.21    0.03    1.09   -0.05    0.00    0.00       0.09    5.28   -0.26
#  39   -1.40   -0.38    0.06    0.76   -0.11    0.00    0.00      -1.07    1.98   -0.28
#  40    0.11   -0.76    0.96    1.38   -0.09    0.00    0.00       1.60    4.10   -0.28
#  41   -1.45   -0.21    0.01    0.48   -0.06    0.00    0.00      -1.24    1.97   -0.26
#  42   -0.98   -0.20    0.01    1.49   -0.04    0.00    0.00       0.29    8.08   -0.19
#  43   -1.36   -0.38    0.14    1.32   -0.08    0.00    0.00      -0.36    4.79   -0.28
#  44   -0.95   -0.37    0.05    0.86   -0.13    0.00    0.00      -0.54    1.85   -0.28
#  45   -2.01   -0.52    0.22    0.57   -0.13    0.00    0.00      -1.88    1.19   -0.28
#  46   -3.25   -1.01    1.65    0.56   -0.10    0.00    0.00      -2.16    1.52   -0.28
#  47   -0.78   -0.15    0.01    0.34   -0.03    0.00    0.00      -0.61    2.29   -0.22

@<TRIPOS>MOLECULE
          T535368        15
   47    49     0     0     0



@<TRIPOS>ATOM
      1 C1          6.8554    -9.9283    90.5738 C.3        1           0.0189
      2 O1          5.9268   -10.5008    91.4969 O.3        1          -0.3203
      3 C2          6.4376   -11.0181    92.6450 C.ar       1           0.1943
      4 C3          6.5675   -10.2186    93.7450 C.ar       1          -0.1739
      5 C4          6.1470    -8.7727    93.6850 C.3        1           0.0694
      6 O2          4.7734    -8.6600    94.0627 O.3        1          -0.0662
      7 N1          4.2767    -7.3343    94.0394 N.pl3      1          -0.4857
      8 C5          4.2738    -6.5825    92.8727 C.cat      1           0.7627
      9 N2          3.8969    -7.0847    91.7315 N.pl3      1          -0.6771
     10 H1          3.6073    -8.0090    91.6804 H          1           0.4578
     11 H2          3.9057    -6.5344    90.9328 H          1           0.4592
     12 N3          4.6968    -5.2597    92.9910 N.pl3      1          -0.6709
     13 C6          4.2879    -4.5878    94.1416 C.cat      1           0.7709
     14 N4          3.9230    -3.3376    94.1152 N.pl3      1          -0.6688
     15 H3          3.9313    -2.8476    93.2780 H          1           0.4598
     16 H4          3.6433    -2.8967    94.9325 H          1           0.4680
     17 N5          4.2908    -5.3258    95.3169 N.pl3      1          -0.7070
     18 C7          3.7343    -6.6944    95.2522 C.3        1           0.4032
     19 C8          2.2076    -6.6354    95.1693 C.3        1          -0.1915
     20 C9          4.1576    -7.4869    96.4906 C.3        1          -0.1746
     21 C10         7.0946   -10.7519    94.9322 C.ar       1           0.0125
     22 C11         7.2429    -9.9604    96.0846 C.ar       1          -0.1497
     23 C12         7.7571   -10.5108    97.2179 C.ar       1          -0.0724
     24 C13         8.1405   -11.8502    97.2551 C.ar       1          -0.1310
     25 C14         8.0117   -12.6469    96.1592 C.ar       1          -0.0666
     26 C15         7.4846   -12.1145    94.9703 C.ar       1          -0.0900
     27 C16         7.3375   -12.9076    93.8192 C.ar       1          -0.0164
     28 C17         6.8178   -12.3628    92.6865 C.ar       1          -0.2078
     29 H5          6.3178    -9.5536    89.7029 H          1           0.0663
     30 H6          7.3859    -9.1064    91.0547 H          1           0.1105
     31 H7          7.5710   -10.6883    90.2598 H          1           0.0677
     32 H8          6.7612    -8.1871    94.3691 H          1           0.0699
     33 H9          6.2766    -8.3986    92.6694 H          1           0.1017
     34 H10         5.2434    -4.8323    92.3132 H          1           0.4801
     35 H11         4.6399    -4.9588    96.1441 H          1           0.4655
     36 H12         1.8130    -6.1618    96.0682 H          1           0.1139
     37 H13         1.9134    -6.0561    94.2940 H          1           0.1237
     38 H14         1.8090    -7.6466    95.0866 H          1           0.0688
     39 H15         3.7537    -7.0092    97.3832 H          1           0.0989
     40 H16         3.7752    -8.5050    96.4188 H          1           0.1129
     41 H17         5.2457    -7.5108    96.5521 H          1           0.1170
     42 H18         6.9504    -8.9209    96.0703 H          1           0.0999
     43 H19         7.8702    -9.9003    98.1017 H          1           0.1292
     44 H20         8.5462   -12.2622    98.1674 H          1           0.1352
     45 H21         8.3133   -13.6830    96.2030 H          1           0.1398
     46 H22         7.6312   -13.9468    93.8358 H          1           0.1468
     47 H23         6.7018   -12.9764    91.8053 H          1           0.1455
@<TRIPOS>BOND
     1    1    2 1
     2    1   29 1
     3    1   30 1
     4    1   31 1
     5    2    3 1
     6    3   28 ar
     7    3    4 ar
     8    4    5 1
     9    4   21 ar
    10    5    6 1
    11    5   32 1
    12    5   33 1
    13    6    7 1
    14    7   18 1
    15    7    8 1
    16    8    9 2
    17    8   12 1
    18    9   10 1
    19    9   11 1
    20   12   13 1
    21   12   34 1
    22   13   14 2
    23   13   17 1
    24   14   15 1
    25   14   16 1
    26   17   18 1
    27   17   35 1
    28   18   19 1
    29   18   20 1
    30   19   36 1
    31   19   37 1
    32   19   38 1
    33   20   39 1
    34   20   40 1
    35   20   41 1
    36   21   26 ar
    37   21   22 ar
    38   22   23 ar
    39   22   42 1
    40   23   24 ar
    41   23   43 1
    42   24   25 ar
    43   24   44 1
    44   25   26 ar
    45   25   45 1
    46   26   27 ar
    47   27   28 ar
    48   27   46 1
    49   28   47 1
##########                 Name:              T534599
##########          Protonation:                   87
##########               SMILES:   COc1ccc2c(n1)c(c[nH]2)C3=CC[NH+](CC3)C[C@H]4C[C@@H]4C(=O)c5ccccc5
##########            Long Name:   l)-1,2,3,6-tetrahydropyridin-1-ium-1-yl]methyl]cyclopropyl]-phenyl-methanone
##########          FlexRecCode: 1
##########               Number:                   58
##########   Ligand Source File: /raidb/db2/rgc/tcams/tcams-0001278.db2.gz
##########           GlobalRank: 124
##########                 Rank:                    1
##########               Setnum:                  241
##########             Matchnum:                  131
##########                Cloud:                    1
##########        Electrostatic:           -53.647324
##########        Van der Waals:           -21.316444
##########  Ligand Polar Desolv:            10.969127
########## Ligand Apolar Desolv:            -3.577027
##########      Internal Energy:             0.000000
##########      Receptor Energy: 0.0
########## Receptor Desolvation:             0.000000
########## Receptor Hydrophobic:             0.000000
##########         Total Energy: -67.57
##########        Ligand Charge:             1.000000
##########            Arbitrary:    +999.9990
##########     heavy atom count:   29
##########           pose count:    1
##########        Ligand Energy:             0.000000
# num electro vdwattr vdwrepu polsolv apolsol rdesolv rhydroe totalscore fullpol fullapo
#   1   -0.02   -0.12    0.01    0.02    0.00    0.00    0.00      -0.11    0.29    0.03
#   2    0.22   -0.14    0.00   -0.11    0.08    0.00    0.00       0.05   -1.26    0.91
#   3   -0.33   -0.27    0.01    0.10   -0.08    0.00    0.00      -0.57    0.84   -0.66
#   4    0.21   -0.36    0.02   -0.18   -0.07    0.00    0.00      -0.38   -1.15   -0.47
#   5    0.08   -0.86    0.15   -0.09   -0.11    0.00    0.00      -0.83   -0.37   -0.48
#   6   -0.02   -0.95    0.19   -0.08   -0.20    0.00    0.00      -1.06   -0.30   -0.78
#   7    2.86   -2.86    4.15   -2.37    0.37    0.00    0.00       2.14   -7.51    1.16
#   8   -1.94   -0.97    0.15    0.57   -0.28    0.00    0.00      -2.47    2.02   -0.99
#   9    1.79   -0.50    0.01   -0.55   -0.08    0.00    0.00       0.67   -2.67   -0.39
#  10   -0.30   -0.43    0.01    0.13   -0.16    0.00    0.00      -0.75    0.67   -0.82
#  11    0.63   -0.32    0.01   -0.41    0.37    0.00    0.00       0.29   -3.05    2.80
#  12    0.03   -0.52    0.02   -0.17   -0.08    0.00    0.00      -0.73   -0.85   -0.40
#  13    2.83   -0.46    0.02   -0.64   -0.08    0.00    0.00       1.66   -3.45   -0.45
#  14   -1.01   -0.65    0.16    0.33   -0.09    0.00    0.00      -1.25    1.45   -0.38
#  15   13.99   -1.36    0.85   -3.69    0.09    0.00    0.00       9.88  -11.74    0.28
#  16  -22.03   -0.09    0.02    3.65    0.14    0.00    0.00     -18.31   13.98    0.54
#  17   -0.59   -0.51    0.02    0.43   -0.10    0.00    0.00      -0.76    1.57   -0.38
#  18    3.04   -0.54    0.03   -0.84   -0.09    0.00    0.00       1.61   -2.97   -0.32
#  19    2.58   -1.10    0.31   -1.16   -0.15    0.00    0.00       0.48   -3.18   -0.41
#  20    2.01   -0.71    0.06   -1.53   -0.13    0.00    0.00      -0.31   -4.45   -0.37
#  21   -2.07   -1.50    0.28    1.72   -0.11    0.00    0.00      -1.67    4.90   -0.30
#  22   -0.18   -2.45    1.57   -1.24    0.13    0.00    0.00      -2.17   -3.67    0.39
#  23    1.27   -1.53    0.27   -0.80   -0.16    0.00    0.00      -0.95   -2.06   -0.41
#  24    0.47   -1.53    0.20   -0.32   -0.22    0.00    0.00      -1.40   -0.65   -0.44
#  25    0.98   -1.87    0.26   -1.03   -0.27    0.00    0.00      -1.92   -1.78   -0.47
#  26    0.70   -2.46    1.03   -0.59   -0.27    0.00    0.00      -1.59   -1.04   -0.47
#  27    1.83   -2.37    0.93   -0.63   -0.25    0.00    0.00      -0.49   -1.16   -0.47
#  28    0.71   -1.79    0.46   -0.40   -0.22    0.00    0.00      -1.24   -0.83   -0.46
#  29    0.09   -1.17    0.26    0.28   -0.16    0.00    0.00      -0.70    0.71   -0.40
#  30    2.65   -0.58    0.03   -0.81   -0.07    0.00    0.00       1.23   -2.70   -0.25
#  31   -0.03   -0.02    0.00    0.01   -0.01    0.00    0.00      -0.05    0.44   -0.28
#  32   -0.11   -0.02    0.00    0.03   -0.01    0.00    0.00      -0.11    1.07   -0.28
#  33   -0.01   -0.08    0.01    0.05   -0.02    0.00    0.00      -0.06    0.59   -0.28
#  34   -0.17   -0.05    0.00    0.04   -0.01    0.00    0.00      -0.18    0.81   -0.28
#  35   -0.34   -0.38    0.24    0.42   -0.06    0.00    0.00      -0.12    1.86   -0.28
#  36  -12.13   -0.40    0.60    2.56    0.22    0.00    0.00      -9.15    6.84    0.59
#  37   -4.64   -0.21    0.02    1.26   -0.06    0.00    0.00      -3.63    5.62   -0.28
#  38   -1.28   -0.06    0.00    0.06   -0.02    0.00    0.00      -1.29    0.98   -0.28
#  39   -3.10   -0.12    0.01    0.60   -0.03    0.00    0.00      -2.64    5.73   -0.27
#  40   -5.14   -0.40    0.21    0.70   -0.04    0.00    0.00      -4.67    3.35   -0.21
#  41   -3.33   -0.20    0.01    1.36   -0.05    0.00    0.00      -2.21    7.35   -0.26
#  42   -2.07   -0.13    0.01    0.74   -0.03    0.00    0.00      -1.48    6.64   -0.27
#  43   -1.84   -0.13    0.01    0.29   -0.03    0.00    0.00      -1.69    2.43   -0.22
#  44   -2.26   -1.06    1.76    0.16   -0.08    0.00    0.00      -1.48    0.52   -0.28
#  45   -2.87   -0.34    0.05    1.55   -0.10    0.00    0.00      -1.70    4.49   -0.28
#  46   -1.50   -0.25    0.02    1.35   -0.06    0.00    0.00      -0.44    5.05   -0.22
#  47   -0.72   -0.31    0.04    1.51   -0.07    0.00    0.00       0.44    4.47   -0.21
#  48   -0.86   -0.50    0.12    1.40   -0.15    0.00    0.00       0.01    2.61   -0.28
#  49   -0.87   -0.98    2.33    0.84   -0.16    0.00    0.00       1.15    1.43   -0.28
#  50   -2.76   -0.64    0.25    0.39   -0.14    0.00    0.00      -2.90    0.76   -0.28
#  51   -2.04   -0.29    0.02    0.08   -0.09    0.00    0.00      -2.32    0.23   -0.27
#  52   -5.06   -0.42    0.06    2.45   -0.12    0.00    0.00      -3.09    5.81   -0.28
#  53   -5.74   -0.70    0.44    2.61   -0.10    0.00    0.00      -3.49    7.02   -0.27
#  54   -2.44   -0.22    0.02    0.49   -0.06    0.00    0.00      -2.21    2.13   -0.28
#  55   -2.82   -0.15    0.00    0.41   -0.04    0.00    0.00      -2.60    3.01   -0.28

@<TRIPOS>MOLECULE
          T534599        87
   55    59     0     0     0



@<TRIPOS>ATOM
      1 C1          2.8638   -10.3254    89.4773 C.3        1           0.0426
      2 O1          1.4625   -10.5961    89.5487 O.3        1          -0.3035
      3 C2          0.7267    -9.8200    90.3843 C.ar       1           0.3275
      4 C3         -0.6436   -10.0433    90.4979 C.ar       1          -0.1618
      5 C4         -1.3950    -9.2554    91.3472 C.ar       1          -0.0385
      6 C5         -0.7474    -8.2537    92.0684 C.ar       1           0.0069
      7 N1         -1.1789    -7.3119    92.9787 N.pl3      1          -0.5738
      8 C6         -0.1294    -6.5524    93.4002 C.2        1           0.1142
      9 C7          1.0111    -6.9663    92.7875 C.2        1          -0.1788
     10 C8          0.6368    -8.0840    91.9054 C.ar       1           0.1479
     11 N2          1.3219    -8.8700    91.0799 N.ar       1          -0.5183
     12 C9          2.3636    -6.4034    92.9707 C.2        1          -0.0017
     13 C10         3.3674    -6.9217    92.2912 C.2        1          -0.1847
     14 C11         4.7739    -6.4068    92.4144 C.3        1           0.0353
     15 N3          4.9368    -5.6031    93.6320 N.4        1          -0.3846
     16 H1          5.8461    -5.1657    93.6305 H          1           0.4287
     17 C12         4.8057    -6.4655    94.8140 C.3        1           0.0265
     18 C13         5.8824    -7.5518    94.7747 C.3        1          -0.1830
     19 C14         7.2123    -7.2539    95.4702 C.3        1          -0.1293
     20 C15         6.2303    -8.2496    96.0910 C.3        1          -0.1841
     21 C16         6.5900    -9.7118    96.0296 C.2        1           0.4251
     22 O2          6.1094   -10.4187    95.1696 O.2        1          -0.4459
     23 C17         7.5246   -10.2816    97.0133 C.ar       1          -0.1758
     24 C18         7.8653   -11.6368    96.9561 C.ar       1          -0.0737
     25 C19         8.7421   -12.1631    97.8811 C.ar       1          -0.1320
     26 C20         9.2844   -11.3539    98.8643 C.ar       1          -0.0780
     27 C21         8.9519   -10.0119    98.9278 C.ar       1          -0.1287
     28 C22         8.0810    -9.4694    98.0066 C.ar       1          -0.0571
     29 C23         3.8908    -4.5691    93.6534 C.3        1          -0.0024
     30 C24         2.5506    -5.2534    93.9216 C.3        1          -0.1120
     31 H2          3.3319   -11.0153    88.7753 H          1           0.0566
     32 H3          3.0192    -9.3011    89.1384 H          1           0.0990
     33 H4          3.3092   -10.4531    90.4639 H          1           0.0560
     34 H5         -1.1154   -10.8276    89.9248 H          1           0.1532
     35 H6         -2.4587    -9.4113    91.4500 H          1           0.1468
     36 H7         -2.0963    -7.2057    93.2756 H          1           0.4265
     37 H8         -0.1940    -5.7435    94.1128 H          1           0.1832
     38 H9          3.1720    -7.7464    91.6220 H          1           0.1476
     39 H10         5.4626    -7.2511    92.4479 H          1           0.1379
     40 H11         5.0074    -5.7917    91.5454 H          1           0.1372
     41 H12         4.9270    -5.8661    95.7163 H          1           0.1362
     42 H13         3.8201    -6.9308    94.8168 H          1           0.1357
     43 H14         5.9133    -8.1504    93.8642 H          1           0.1360
     44 H15         8.1183    -7.6564    95.0174 H          1           0.1189
     45 H16         7.3200    -6.2841    95.9559 H          1           0.1193
     46 H17         5.6923    -7.9348    96.9851 H          1           0.1390
     47 H18         7.4425   -12.2695    96.1898 H          1           0.1295
     48 H19         9.0060   -13.2094    97.8385 H          1           0.1330
     49 H20         9.9706   -11.7720    99.5860 H          1           0.1329
     50 H21         9.3790    -9.3871    99.6982 H          1           0.1345
     51 H22         7.8258    -8.4211    98.0547 H          1           0.1351
     52 H23         4.1018    -3.8483    94.4433 H          1           0.1338
     53 H24         3.8547    -4.0620    92.6892 H          1           0.1360
     54 H25         1.7416    -4.5356    93.7855 H          1           0.1061
     55 H26         2.5358    -5.6248    94.9463 H          1           0.1229
@<TRIPOS>BOND
     1    1    2 1
     2    1   31 1
     3    1   32 1
     4    1   33 1
     5    2    3 1
     6    3   11 ar
     7    3    4 ar
     8    4    5 ar
     9    4   34 1
    10    5    6 ar
    11    5   35 1
    12    6   10 ar
    13    6    7 1
    14    7    8 1
    15    7   36 1
    16    8    9 2
    17    8   37 1
    18    9   10 1
    19    9   12 1
    20   10   11 ar
    21   12   30 1
    22   12   13 2
    23   13   14 1
    24   13   38 1
    25   14   15 1
    26   14   39 1
    27   14   40 1
    28   15   16 1
    29   15   17 1
    30   15   29 1
    31   17   18 1
    32   17   41 1
    33   17   42 1
    34   18   20 1
    35   18   19 1
    36   18   43 1
    37   19   20 1
    38   19   44 1
    39   19   45 1
    40   20   21 1
    41   20   46 1
    42   21   22 2
    43   21   23 1
    44   23   28 ar
    45   23   24 ar
    46   24   25 ar
    47   24   47 1
    48   25   26 ar
    49   25   48 1
    50   26   27 ar
    51   26   49 1
    52   27   28 ar
    53   27   50 1
    54   28   51 1
    55   29   30 1
    56   29   52 1
    57   29   53 1
    58   30   54 1
    59   30   55 1
##########                 Name:              T542294
##########          Protonation:                   94
##########               SMILES:   c1cc(cc(c1)Cl)NC(=O)N2CCC[NH+](CC2)CCCCCNC(=O)/C=C/c3ccc(cc3)C(F)(F)F
##########            Long Name:   oromethyl)phenyl]prop-2-enoyl]amino]pentyl]-1,4-diazepan-4-ium-1-carboxamide
##########          FlexRecCode: 1
##########               Number:                   79
##########   Ligand Source File: /raidb/db2/rgc/tcams/tcams-0002259.db2.gz
##########           GlobalRank: 125
##########                 Rank:                    1
##########               Setnum:                  264
##########             Matchnum:                 4053
##########                Cloud:                    1
##########        Electrostatic:           -26.440197
##########        Van der Waals:           -40.227394
##########  Ligand Polar Desolv:             5.119363
########## Ligand Apolar Desolv:            -5.999127
##########      Internal Energy:             0.000000
##########      Receptor Energy: 0.0
########## Receptor Desolvation:             0.000000
########## Receptor Hydrophobic:             0.000000
##########         Total Energy: -67.55
##########        Ligand Charge:             1.000000
##########            Arbitrary:    +999.9990
##########     heavy atom count:   37
##########           pose count:    1
##########        Ligand Energy:             0.000000
# num electro vdwattr vdwrepu polsolv apolsol rdesolv rhydroe totalscore fullpol fullapo
#   1    2.36   -2.10    1.03   -0.29   -0.35    0.00    0.00       0.65   -0.40   -0.48
#   2   -6.15   -1.75    0.39    1.13   -0.05    0.00    0.00      -6.43    1.60   -0.07
#   3    1.97   -2.05    0.79   -0.43   -0.34    0.00    0.00      -0.06   -0.57   -0.45
#   4    2.02   -2.10    1.17   -0.27   -0.32    0.00    0.00       0.50   -0.38   -0.45
#   5    2.97   -2.94    1.49   -0.64   -0.22    0.00    0.00       0.66   -1.10   -0.38
#   6    0.34   -2.62    0.80   -0.27   -0.21    0.00    0.00      -1.96   -0.55   -0.44
#   7    0.40   -2.44    1.29   -0.32   -0.18    0.00    0.00      -1.25   -0.82   -0.45
#   8    0.29   -1.83    0.88   -0.12   -0.14    0.00    0.00      -0.92   -0.36   -0.41
#   9    0.14   -0.90    0.14   -0.11   -0.10    0.00    0.00      -0.83   -0.46   -0.44
#  10    0.77   -0.47    0.03   -0.33   -0.07    0.00    0.00      -0.08   -1.97   -0.43
#  11   -3.07   -0.23    0.00    0.42   -0.06    0.00    0.00      -2.94    4.50   -0.65
#  12    5.71   -0.21    0.00   -0.16    0.04    0.00    0.00       5.38   -1.63    0.39
#  13    1.53   -0.14    0.00   -0.56    0.14    0.00    0.00       0.96   -9.68    2.33
#  14   -0.11   -0.09    0.00    0.09   -0.03    0.00    0.00      -0.13    1.47   -0.42
#  15    0.14   -0.11    0.00   -0.18   -0.02    0.00    0.00      -0.16   -2.53   -0.22
#  16    0.25   -0.16    0.00   -0.30   -0.02    0.00    0.00      -0.24   -3.13   -0.22
#  17    0.97   -0.21    0.00   -0.57   -0.03    0.00    0.00       0.16   -4.51   -0.21
#  18    0.27   -0.38    0.02   -0.01   -0.07    0.00    0.00      -0.16   -0.05   -0.34
#  19    7.44   -0.50    0.02   -2.66    0.04    0.00    0.00       4.35  -11.82    0.19
#  20   -5.70   -0.01    0.00    1.52    0.04    0.00    0.00      -4.15   17.65    0.46
#  21    0.20   -0.66    0.04    0.08   -0.12    0.00    0.00      -0.45    0.26   -0.38
#  22    3.94   -0.83    0.07   -1.47   -0.10    0.00    0.00       1.61   -3.70   -0.24
#  23   -3.07   -0.95    0.12    0.86   -0.19    0.00    0.00      -3.23    2.12   -0.46
#  24   13.30   -0.81    0.03   -3.80    0.42    0.00    0.00       9.14  -13.08    1.44
#  25   -2.23   -0.56    0.07    0.41   -0.10    0.00    0.00      -2.40    1.68   -0.40
#  26    1.78   -0.72    0.19   -0.35   -0.09    0.00    0.00       0.81   -1.44   -0.37
#  27   -7.87   -1.15    0.15    3.38   -0.67    0.00    0.00      -6.15   10.08   -1.99
#  28    4.75   -1.75    0.34   -1.98    0.13    0.00    0.00       1.50   -4.73    0.32
#  29    5.46   -1.21    0.18   -3.57    0.53    0.00    0.00       1.39  -11.08    1.65
#  30   -1.62   -1.32    0.13    0.80   -0.25    0.00    0.00      -2.26    2.11   -0.67
#  31    0.82   -1.50    0.24   -0.38   -0.15    0.00    0.00      -0.96   -0.99   -0.39
#  32    0.14   -1.75    0.51   -0.16   -0.14    0.00    0.00      -1.39   -0.33   -0.30
#  33    0.39   -3.67    0.74   -0.22   -0.58    0.00    0.00      -3.32   -0.37   -0.99
#  34    1.90   -2.18    0.56   -0.64   -0.25    0.00    0.00      -0.61   -1.17   -0.46
#  35    1.52   -2.17    0.33   -0.57   -0.27    0.00    0.00      -1.16   -0.99   -0.47
#  36    2.11   -1.58    0.17   -0.81   -0.23    0.00    0.00      -0.34   -1.65   -0.46
#  37    2.83   -1.87    0.49   -0.41   -0.18    0.00    0.00       0.86   -0.99   -0.44
#  38    2.22   -2.74    1.00   -0.32   -0.22    0.00    0.00      -0.05   -0.66   -0.44
#  39   -0.63   -0.57    0.22    0.40   -0.13    0.00    0.00      -0.70    0.84   -0.27
#  40   -0.44   -0.47    0.27    0.35   -0.07    0.00    0.00      -0.36    1.35   -0.28
#  41   -3.09   -0.16    0.01    0.10   -0.04    0.00    0.00      -3.17    0.63   -0.26
#  42   -0.36   -0.09    0.00    0.28   -0.02    0.00    0.00      -0.18    3.26   -0.21
#  43   -0.60    0.00    0.00    0.26    0.02    0.00    0.00      -0.33    8.06    0.56
#  44   -0.05   -0.02    0.00    0.01   -0.01    0.00    0.00      -0.06    0.35   -0.28
#  45   -0.11   -0.04    0.00    0.01   -0.01    0.00    0.00      -0.14    0.34   -0.28
#  46   -0.08   -0.02    0.00    0.07   -0.01    0.00    0.00      -0.05    2.23   -0.28
#  47   -0.07   -0.04    0.00    0.10   -0.01    0.00    0.00      -0.02    2.32   -0.28
#  48   -0.15   -0.06    0.00    0.08   -0.02    0.00    0.00      -0.14    1.40   -0.28
#  49   -0.14   -0.05    0.00    0.08   -0.01    0.00    0.00      -0.13    1.46   -0.28
#  50   -0.30   -0.08    0.00    0.39   -0.03    0.00    0.00      -0.02    4.16   -0.28
#  51   -0.72   -0.05    0.00    0.22   -0.01    0.00    0.00      -0.57    4.17   -0.22
#  52   -2.11   -0.21    0.04    0.77   -0.05    0.00    0.00      -1.56    4.19   -0.28
#  53   -1.69   -0.10    0.00    0.55   -0.03    0.00    0.00      -1.27    5.39   -0.26
#  54   -4.13   -0.35    0.07    0.69   -0.08    0.00    0.00      -3.80    2.21   -0.24
#  55   -3.13   -0.17    0.01    1.05   -0.05    0.00    0.00      -2.28    5.77   -0.25
#  56   -3.48   -0.54    0.18    1.09   -0.11    0.00    0.00      -2.86    2.86   -0.28
#  57   -1.90   -0.18    0.01    0.99   -0.05    0.00    0.00      -1.14    5.05   -0.25
#  58   -4.08   -0.34    0.04    0.04   -0.09    0.00    0.00      -4.44    0.10   -0.24
#  59   -2.21   -0.60    0.32    0.36   -0.09    0.00    0.00      -2.22    1.13   -0.28
#  60   -4.08   -0.32    0.13    0.82   -0.05    0.00    0.00      -3.50    3.54   -0.22
#  61   -1.64   -0.11    0.00    0.60   -0.03    0.00    0.00      -1.18    5.45   -0.28
#  62   -3.87   -0.14    0.02    1.10   -0.03    0.00    0.00      -2.93    8.17   -0.20
#  63   -6.15   -0.70    0.89    1.04   -0.08    0.00    0.00      -5.00    3.81   -0.28
#  64   -2.17   -0.02    0.00    1.91    0.08    0.00    0.00      -0.20   10.53    0.44
#  65   -0.60   -0.26    0.02    0.04   -0.06    0.00    0.00      -0.86    0.15   -0.22
#  66   -2.60   -0.59    0.23    0.43   -0.14    0.00    0.00      -2.66    0.86   -0.28
#  67   -3.14   -0.62    0.11    1.49   -0.16    0.00    0.00      -2.32    2.58   -0.28
#  68   -2.16   -0.36    0.11    1.30   -0.09    0.00    0.00      -1.19    4.24   -0.28
#  69   -4.21   -0.25    0.02    0.90   -0.06    0.00    0.00      -3.60    3.08   -0.21
#  70   -5.46   -0.81    0.60    0.77   -0.13    0.00    0.00      -5.03    1.62   -0.27

@<TRIPOS>MOLECULE
          T542294        94
   70    72     0     0     0



@<TRIPOS>ATOM
      1 F1          9.1311    -1.8000    84.0903 F          1          -0.1737
      2 C1          7.7996    -2.1400    83.8282 C.3        1           0.5064
      3 F2          7.0040    -0.9909    83.8908 F          1          -0.1753
      4 F3          7.7049    -2.7038    82.5513 F          1          -0.1740
      5 C2          7.3242    -3.1364    84.8539 C.ar       1          -0.1697
      6 C3          6.0307    -3.6247    84.7914 C.ar       1          -0.0697
      7 C4          5.5883    -4.5371    85.7258 C.ar       1          -0.0932
      8 C5          6.4505    -4.9689    86.7385 C.ar       1          -0.0492
      9 C6          5.9864    -5.9430    87.7398 C.2        1          -0.0139
     10 C7          4.9147    -6.7183    87.4797 C.2        1          -0.2117
     11 C8          4.4528    -7.6873    88.4757 C.2        1           0.5488
     12 O1          5.0366    -7.7927    89.5383 O.2        1          -0.5370
     13 N1          3.3815    -8.4625    88.2155 N.am       1          -0.7313
     14 C9          2.9196    -9.4320    89.2119 C.3        1           0.1173
     15 C10         1.4795    -9.1051    89.6121 C.3        1          -0.1323
     16 C11         1.4224    -7.6963    90.2063 C.3        1          -0.1154
     17 C12         2.3231    -7.6269    91.4412 C.3        1          -0.1491
     18 C13         2.2660    -6.2181    92.0354 C.3        1          -0.0193
     19 N2          3.1308    -6.1514    93.2211 N.4        1          -0.3644
     20 H1          3.0255    -7.0108    93.7392 H          1           0.4183
     21 C14         2.6730    -5.0401    94.0674 C.3        1          -0.0081
     22 C15         3.0154    -5.2286    95.4885 C.3        1          -0.1565
     23 C16         4.5504    -5.3421    95.6528 C.3        1           0.1131
     24 N3          5.0251    -6.6049    95.1481 N.am       1          -0.6347
     25 C17         5.4543    -6.8010    93.7396 C.3        1           0.0887
     26 C18         4.5007    -6.0504    92.7804 C.3        1          -0.0589
     27 C19         5.0828    -7.6549    95.9912 C.2        1           0.6985
     28 O2          4.2957    -7.7373    96.9141 O.2        1          -0.5413
     29 N4          6.0132    -8.6132    95.8113 N.am       1          -0.6810
     30 C20         6.9498    -8.8769    96.8171 C.ar       1           0.1609
     31 C21         7.4751   -10.1542    96.9611 C.ar       1          -0.1114
     32 C22         8.4004   -10.4110    97.9551 C.ar       1          -0.0140
     33 Cl1         9.0581   -12.0073    98.1365 Cl         1          -0.0531
     34 C23         8.8033    -9.3962    98.8060 C.ar       1          -0.1178
     35 C24         8.2814    -8.1238    98.6643 C.ar       1          -0.0829
     36 C25         7.3600    -7.8602    97.6694 C.ar       1          -0.1403
     37 C26         7.7560    -4.4709    86.7949 C.ar       1          -0.1037
     38 C27         8.1851    -3.5629    85.8500 C.ar       1          -0.0711
     39 H2          5.3659    -3.2899    84.0088 H          1           0.1433
     40 H3          4.5786    -4.9169    85.6759 H          1           0.1434
     41 H4          6.5045    -6.0367    88.6828 H          1           0.1426
     42 H5          4.3965    -6.6247    86.5367 H          1           0.1326
     43 H6          2.9163    -8.3785    87.3685 H          1           0.4025
     44 H7          2.9603   -10.4355    88.7887 H          1           0.0703
     45 H8          3.5612    -9.3825    90.0918 H          1           0.0705
     46 H9          0.8378    -9.1546    88.7324 H          1           0.0751
     47 H10         1.1358    -9.8264    90.3535 H          1           0.0744
     48 H11         1.7661    -6.9750    89.4650 H          1           0.0791
     49 H12         0.3964    -7.4635    90.4914 H          1           0.0800
     50 H13         1.9794    -8.3481    92.1826 H          1           0.0901
     51 H14         3.3490    -7.8597    91.1562 H          1           0.0886
     52 H15         2.6097    -5.4968    91.2941 H          1           0.1315
     53 H16         1.2401    -5.9853    92.3206 H          1           0.1358
     54 H17         3.1321    -4.1168    93.7143 H          1           0.1315
     55 H18         1.5908    -4.9502    93.9750 H          1           0.1385
     56 H19         2.6519    -4.3774    96.0642 H          1           0.1284
     57 H20         2.5438    -6.1398    95.8565 H          1           0.0899
     58 H21         5.0306    -4.5326    95.1031 H          1           0.1136
     59 H22         4.8050    -5.2595    96.7095 H          1           0.0886
     60 H23         6.4673    -6.4183    93.6145 H          1           0.1180
     61 H24         5.4403    -7.8649    93.5028 H          1           0.1105
     62 H25         4.5874    -6.4795    91.7823 H          1           0.1501
     63 H26         4.7871    -4.9993    92.7428 H          1           0.1303
     64 H27         6.0335    -9.1204    94.9847 H          1           0.4053
     65 H28         7.1609   -10.9460    96.2973 H          1           0.1443
     66 H29         9.5264    -9.5988    99.5821 H          1           0.1403
     67 H30         8.5974    -7.3342    99.3298 H          1           0.1417
     68 H31         6.9563    -6.8649    97.5568 H          1           0.1309
     69 H32         8.4277    -4.7997    87.5741 H          1           0.1388
     70 H33         9.1944    -3.1804    85.8898 H          1           0.1415
@<TRIPOS>BOND
     1    1    2 1
     2    2    3 1
     3    2    4 1
     4    2    5 1
     5    5   38 ar
     6    5    6 ar
     7    6    7 ar
     8    6   39 1
     9    7    8 ar
    10    7   40 1
    11    8    9 1
    12    8   37 ar
    13    9   10 2
    14    9   41 1
    15   10   11 1
    16   10   42 1
    17   11   12 2
    18   11   13 am
    19   13   14 1
    20   13   43 1
    21   14   15 1
    22   14   44 1
    23   14   45 1
    24   15   16 1
    25   15   46 1
    26   15   47 1
    27   16   17 1
    28   16   48 1
    29   16   49 1
    30   17   18 1
    31   17   50 1
    32   17   51 1
    33   18   19 1
    34   18   52 1
    35   18   53 1
    36   19   20 1
    37   19   26 1
    38   19   21 1
    39   21   22 1
    40   21   54 1
    41   21   55 1
    42   22   23 1
    43   22   56 1
    44   22   57 1
    45   23   24 1
    46   23   58 1
    47   23   59 1
    48   24   25 1
    49   24   27 am
    50   25   26 1
    51   25   60 1
    52   25   61 1
    53   26   62 1
    54   26   63 1
    55   27   28 2
    56   27   29 am
    57   29   30 1
    58   29   64 1
    59   30   36 ar
    60   30   31 ar
    61   31   32 ar
    62   31   65 1
    63   32   33 1
    64   32   34 ar
    65   34   35 ar
    66   34   66 1
    67   35   36 ar
    68   35   67 1
    69   36   68 1
    70   37   38 ar
    71   37   69 1
    72   38   70 1
##########                 Name:              T539767
##########          Protonation:                   27
##########               SMILES:   C[C@@H](c1ccccc1)ON2C(=[NH2+])NC(=[NH2+])NC2(C)C
##########            Long Name:   dene-6,6-dimethyl-1-[(1S)-1-phenylethoxy]-1,3,5-triazinan-2-ylidene]ammonium
##########          FlexRecCode: 1
##########               Number:                  108
##########   Ligand Source File: /raidb/db2/rgc/tcams/tcams-0001927.db2.gz
##########           GlobalRank: 126
##########                 Rank:                    1
##########               Setnum:                    7
##########             Matchnum:                  926
##########                Cloud:                    1
##########        Electrostatic:           -63.158268
##########        Van der Waals:           -20.149258
##########  Ligand Polar Desolv:            18.460772
########## Ligand Apolar Desolv:            -2.691846
##########      Internal Energy:             0.000000
##########      Receptor Energy: 0.0
########## Receptor Desolvation:             0.000000
########## Receptor Hydrophobic:             0.000000
##########         Total Energy: -67.54
##########        Ligand Charge:             2.000000
##########            Arbitrary:    +999.9990
##########     heavy atom count:   19
##########           pose count:    1
##########        Ligand Energy:             0.000000
# num electro vdwattr vdwrepu polsolv apolsol rdesolv rhydroe totalscore fullpol fullapo
#   1    2.32   -0.98    0.11   -2.61   -0.08    0.00    0.00      -1.24   -5.78   -0.18
#   2   -0.76   -0.73    0.06    1.11   -0.03    0.00    0.00      -0.35    3.22   -0.10
#   3    0.18   -1.80    1.42   -0.98    0.12    0.00    0.00      -1.07   -3.20    0.38
#   4    5.15   -0.94    0.17   -5.08    0.20    0.00    0.00      -0.50  -20.99    0.82
#   5  -15.58   -0.70    0.05    8.39   -1.02    0.00    0.00      -8.86   35.88   -4.35
#   6   10.72   -0.59    0.03   -6.77    0.20    0.00    0.00       3.59  -30.85    0.89
#   7   -3.79   -0.01    0.00    2.40    0.05    0.00    0.00      -1.35   21.18    0.40
#   8   -9.41   -0.01    0.00    2.95    0.07    0.00    0.00      -6.40   24.46    0.60
#   9   25.71   -2.12    2.18   -8.90    0.33    0.00    0.00      17.20  -31.12    1.15
#  10  -27.07   -1.46    0.41   13.16   -1.59    0.00    0.00     -16.54   37.48   -4.52
#  11   27.65   -3.30    2.03  -13.39    0.38    0.00    0.00      13.37  -31.33    0.89
#  12  -26.80   -0.14    0.02   10.58    0.26    0.00    0.00     -16.07   24.64    0.60
#  13  -15.27   -0.05    0.00    9.11    0.23    0.00    0.00      -5.98   23.63    0.60
#  14   17.73   -0.87    0.03  -10.33    0.50    0.00    0.00       7.05  -31.80    1.53
#  15   -5.39   -0.55    0.06    4.59   -0.10    0.00    0.00      -1.40   17.52   -0.38
#  16    2.04   -1.09    0.22   -2.72   -0.07    0.00    0.00      -1.62   -6.34   -0.16
#  17    1.69   -0.52    0.07   -1.77   -0.04    0.00    0.00      -0.56   -7.97   -0.18
#  18    0.96   -1.38    0.16   -0.82   -0.10    0.00    0.00      -1.19   -2.28   -0.29
#  19    0.26   -1.76    0.39   -0.81   -0.15    0.00    0.00      -2.07   -2.22   -0.40
#  20    0.59   -1.75    0.32   -1.40   -0.21    0.00    0.00      -2.46   -3.08   -0.47
#  21    0.68   -1.62    0.19   -1.66   -0.26    0.00    0.00      -2.68   -3.01   -0.47
#  22    1.00   -1.82    0.57   -1.62   -0.24    0.00    0.00      -2.11   -3.18   -0.47
#  23    1.10   -1.64    0.37   -1.05   -0.20    0.00    0.00      -1.43   -2.45   -0.46
#  24   -0.93   -0.31    0.04    1.77   -0.09    0.00    0.00       0.48    5.11   -0.25
#  25   -1.61   -0.30    0.06    0.13   -0.08    0.00    0.00      -1.79    0.48   -0.28
#  26   -1.09   -0.52    0.20    0.91   -0.11    0.00    0.00      -0.61    2.34   -0.28
#  27   -1.62   -0.23    0.03    1.35   -0.04    0.00    0.00      -0.52    7.50   -0.25
#  28  -27.52   -0.17    0.10    7.78    0.17    0.00    0.00     -19.63   26.32    0.59
#  29  -12.47   -0.02    0.00    4.97    0.14    0.00    0.00      -7.39   21.10    0.58
#  30   -1.94   -0.29    0.03    0.82   -0.10    0.00    0.00      -1.48    2.33   -0.28
#  31   -0.02   -0.81    0.91    1.37   -0.11    0.00    0.00       1.35    3.62   -0.28
#  32   -1.63   -0.32    0.04    0.51   -0.08    0.00    0.00      -1.48    1.48   -0.22
#  33   -1.67   -0.12    0.00    0.33   -0.03    0.00    0.00      -1.48    2.89   -0.28
#  34   -1.35   -0.08    0.00    0.32   -0.02    0.00    0.00      -1.14    4.07   -0.28
#  35    0.12   -0.42    0.36    1.17   -0.05    0.00    0.00       1.18    5.57   -0.26
#  36    0.16   -0.54    0.32    0.99   -0.07    0.00    0.00       0.85    3.66   -0.27
#  37   -0.98   -0.53    0.31    0.61   -0.10    0.00    0.00      -0.70    1.63   -0.28
#  38   -1.01   -0.40    0.05    0.51   -0.14    0.00    0.00      -0.99    1.02   -0.28
#  39   -1.43   -0.40    0.10    0.84   -0.12    0.00    0.00      -1.01    1.97   -0.28
#  40   -1.86   -0.30    0.03    1.71   -0.09    0.00    0.00      -0.51    5.28   -0.28

@<TRIPOS>MOLECULE
          T539767        27
   40    41     0     0     0



@<TRIPOS>ATOM
      1 C1          6.2219    -7.5458    97.3396 C.3        1          -0.1689
      2 C2          6.4358    -8.4445    96.1199 C.3        1           0.0722
      3 O1          5.1740    -8.7355    95.5155 O.3        1          -0.0599
      4 N1          4.6785    -7.6979    94.6889 N.pl3      1          -0.4841
      5 C3          5.3864    -7.2547    93.5804 C.cat      1           0.7621
      6 N2          5.9523    -8.0827    92.7494 N.pl3      1          -0.6762
      7 H1          5.8857    -9.0392    92.8968 H          1           0.4598
      8 H2          6.4406    -7.7430    91.9832 H          1           0.4599
      9 N3          5.4578    -5.8737    93.4067 N.pl3      1          -0.6710
     10 C4          4.2996    -5.1591    93.7071 C.cat      1           0.7710
     11 N4          3.9102    -4.1461    92.9869 N.pl3      1          -0.6674
     12 H3          4.4311    -3.8699    92.2166 H          1           0.4602
     13 H4          3.0992    -3.6679    93.2208 H          1           0.4685
     14 N5          3.5843    -5.5880    94.8165 N.pl3      1          -0.7069
     15 C5          3.3851    -7.0457    94.9649 C.3        1           0.4047
     16 C6          2.9364    -7.3664    96.3921 C.3        1          -0.1761
     17 C7          2.3338    -7.5349    93.9668 C.3        1          -0.1918
     18 C8          7.0939    -9.7296    96.5521 C.ar       1          -0.1351
     19 C9          6.8554   -10.8976    95.8524 C.ar       1          -0.0979
     20 C10         7.4590   -12.0763    96.2487 C.ar       1          -0.1114
     21 C11         8.3015   -12.0868    97.3446 C.ar       1          -0.0929
     22 C12         8.5408   -10.9186    98.0439 C.ar       1          -0.1093
     23 C13         7.9405    -9.7390    97.6448 C.ar       1          -0.1040
     24 H5          7.1842    -7.3239    97.8006 H          1           0.0587
     25 H6          5.7457    -6.6164    97.0270 H          1           0.0923
     26 H7          5.5831    -8.0569    98.0599 H          1           0.1042
     27 H8          7.0746    -7.9335    95.3996 H          1           0.1032
     28 H9          6.2657    -5.4360    93.0957 H          1           0.4801
     29 H10         3.2289    -4.9589    95.4635 H          1           0.4661
     30 H11         1.9803    -6.8818    96.5900 H          1           0.0999
     31 H12         2.8271    -8.4451    96.5049 H          1           0.1139
     32 H13         3.6820    -7.0010    97.0982 H          1           0.1148
     33 H14         1.3805    -7.0494    94.1760 H          1           0.1135
     34 H15         2.6523    -7.2887    92.9538 H          1           0.1246
     35 H16         2.2194    -8.6148    94.0595 H          1           0.0691
     36 H17         6.1971   -10.8893    94.9961 H          1           0.1256
     37 H18         7.2721   -12.9890    95.7025 H          1           0.1337
     38 H19         8.7726   -13.0079    97.6548 H          1           0.1348
     39 H20         9.1988   -10.9270    98.9002 H          1           0.1348
     40 H21         8.1303    -8.8256    98.1888 H          1           0.1250
@<TRIPOS>BOND
     1    1    2 1
     2    1   24 1
     3    1   25 1
     4    1   26 1
     5    2    3 1
     6    2   18 1
     7    2   27 1
     8    3    4 1
     9    4   15 1
    10    4    5 1
    11    5    6 2
    12    5    9 1
    13    6    7 1
    14    6    8 1
    15    9   10 1
    16    9   28 1
    17   10   11 2
    18   10   14 1
    19   11   12 1
    20   11   13 1
    21   14   15 1
    22   14   29 1
    23   15   16 1
    24   15   17 1
    25   16   30 1
    26   16   31 1
    27   16   32 1
    28   17   33 1
    29   17   34 1
    30   17   35 1
    31   18   23 ar
    32   18   19 ar
    33   19   20 ar
    34   19   36 1
    35   20   21 ar
    36   20   37 1
    37   21   22 ar
    38   21   38 1
    39   22   23 ar
    40   22   39 1
    41   23   40 1
##########                 Name:              T536893
##########          Protonation:                   15
##########               SMILES:   CC1([C@H]2CC[C@@H]([C@@H]1C2)CNc3[nH+]c(nc(n3)NCc4cc(ccc4F)F)NCCc5cnc[nH]5)C
##########            Long Name:   yl]methyl]-N2-[2-(1H-imidazol-5-yl)ethyl]-1,3,5-triazin-1-ium-2,4,6-triamine
##########          FlexRecCode: 1
##########               Number:                   23
##########   Ligand Source File: /raidb/db2/rgc/tcams/tcams-0001539.db2.gz
##########           GlobalRank: 127
##########                 Rank:                    1
##########               Setnum:                  333
##########             Matchnum:                 2473
##########                Cloud:                    1
##########        Electrostatic:           -33.779324
##########        Van der Waals:           -31.306772
##########  Ligand Polar Desolv:             2.822317
########## Ligand Apolar Desolv:            -5.238736
##########      Internal Energy:             0.000000
##########      Receptor Energy: 0.0
########## Receptor Desolvation:             0.000000
########## Receptor Hydrophobic:             0.000000
##########         Total Energy: -67.5
##########        Ligand Charge:             1.000000
##########            Arbitrary:    +999.9990
##########     heavy atom count:   35
##########           pose count:    1
##########        Ligand Energy:             0.000000
# num electro vdwattr vdwrepu polsolv apolsol rdesolv rhydroe totalscore fullpol fullapo
#   1    0.24   -0.28    0.01   -0.21   -0.03    0.00    0.00      -0.26   -1.26   -0.18
#   2    0.19   -0.31    0.01   -0.21   -0.02    0.00    0.00      -0.35   -1.13   -0.12
#   3    0.33   -0.23    0.01   -0.25   -0.02    0.00    0.00      -0.16   -1.61   -0.15
#   4    2.11   -1.04    0.32   -0.49   -0.10    0.00    0.00       0.80   -1.48   -0.29
#   5    3.05   -0.91    0.15   -0.67   -0.11    0.00    0.00       1.51   -1.85   -0.30
#   6    1.26   -0.35    0.01   -0.23   -0.05    0.00    0.00       0.65   -1.07   -0.24
#   7    1.33   -0.30    0.01   -0.26   -0.02    0.00    0.00       0.77   -1.47   -0.12
#   8   -2.05   -0.54    0.06    0.56   -0.08    0.00    0.00      -2.04    2.35   -0.33
#   9   10.00   -0.60    0.06   -2.91    0.32    0.00    0.00       6.87  -15.18    1.67
#  10  -12.02   -1.08    0.33    3.54   -1.08    0.00    0.00     -10.31   15.70   -4.81
#  11   18.05   -1.53    0.50   -4.13    0.27    0.00    0.00      13.16  -15.30    0.99
#  12  -17.68   -0.05    0.00    3.59    0.10    0.00    0.00     -14.04   13.19    0.36
#  13  -17.70   -1.19    0.27    4.47   -1.32    0.00    0.00     -15.46   16.35   -4.81
#  14   22.91   -1.62    0.83   -5.01    0.54    0.00    0.00      17.65  -16.17    1.73
#  15   -2.19   -0.57    0.03    0.74   -0.11    0.00    0.00      -2.10    2.49   -0.37
#  16    1.33   -0.75    0.05   -0.39   -0.09    0.00    0.00       0.14   -1.02   -0.25
#  17    1.35   -0.96    0.08    0.08   -0.21    0.00    0.00       0.33    0.26   -0.70
#  18    0.01   -2.40    1.19   -0.39   -0.36    0.00    0.00      -1.96   -1.10   -1.01
#  19    9.54   -2.24    1.47   -1.44    0.70    0.00    0.00       8.03   -4.65    2.26
#  20   -2.73   -0.80    0.12    0.40   -0.72    0.00    0.00      -3.73    1.84   -3.33
#  21   10.18   -0.60    0.02   -2.04    0.27    0.00    0.00       7.83   -8.81    1.18
#  22    8.60   -0.94    0.11   -3.45    0.52    0.00    0.00       4.84  -13.01    1.96
#  23   -6.68   -1.12    0.35    3.03   -1.18    0.00    0.00      -5.60   12.36   -4.81
#  24    3.65   -1.07    0.14   -3.15    0.48    0.00    0.00       0.06  -11.40    1.74
#  25   -0.36   -1.21    0.34    1.11   -0.15    0.00    0.00      -0.27    3.14   -0.42
#  26    1.05   -1.31    0.14   -0.55   -0.14    0.00    0.00      -0.80   -1.47   -0.37
#  27    1.22   -1.42    0.18   -0.46   -0.19    0.00    0.00      -0.67   -1.13   -0.46
#  28   -1.56   -1.98    0.40    0.20   -0.18    0.00    0.00      -3.11    0.38   -0.34
#  29    2.54   -1.62    0.49   -0.68   -0.28    0.00    0.00       0.44   -1.16   -0.48
#  30    1.58   -2.06    0.43   -0.68   -0.25    0.00    0.00      -0.97   -1.27   -0.47
#  31    1.27   -1.76    0.34   -0.81   -0.25    0.00    0.00      -1.21   -1.51   -0.47
#  32   -0.93   -1.35    0.14    0.54   -0.17    0.00    0.00      -1.77    1.10   -0.34
#  33    1.03   -0.77    0.04   -0.82   -0.25    0.00    0.00      -0.75   -1.53   -0.46
#  34    6.84   -1.15    0.53   -2.55    0.43    0.00    0.00       4.10  -12.61    2.12
#  35    2.56   -0.52    0.03   -0.61   -0.06    0.00    0.00       1.39   -1.99   -0.21
#  36    2.60   -1.01    0.23   -0.52   -0.09    0.00    0.00       1.22   -1.46   -0.24
#  37   -0.10   -0.08    0.00    0.05   -0.02    0.00    0.00      -0.14    0.66   -0.28
#  38   -0.26   -0.13    0.01    0.01   -0.04    0.00    0.00      -0.41    0.09   -0.28
#  39   -0.07   -0.05    0.00    0.02   -0.01    0.00    0.00      -0.11    0.48   -0.23
#  40   -0.18   -0.09    0.01    0.06   -0.02    0.00    0.00      -0.23    0.65   -0.28
#  41   -0.14   -0.09    0.01    0.13   -0.02    0.00    0.00      -0.11    1.26   -0.15
#  42   -0.11   -0.03    0.00    0.00   -0.01    0.00    0.00      -0.14    0.03   -0.28
#  43   -2.24   -0.96    1.23    0.02   -0.10    0.00    0.00      -2.04    0.07   -0.28
#  44   -1.79   -0.32    0.05    0.25   -0.08    0.00    0.00      -1.89    0.73   -0.23
#  45   -2.06   -0.40    0.10    0.57   -0.08    0.00    0.00      -1.87    1.58   -0.22
#  46   -0.90   -0.10    0.00    0.23   -0.03    0.00    0.00      -0.80    2.09   -0.28
#  47   -0.95   -0.05    0.00    0.08   -0.01    0.00    0.00      -0.92    1.90   -0.21
#  48   -2.55   -0.41    0.19    0.99   -0.08    0.00    0.00      -1.86    3.53   -0.28
#  49   -2.10   -0.15    0.01    0.53   -0.04    0.00    0.00      -1.75    3.47   -0.27
#  50   -4.52    0.00    0.00    0.65    0.04    0.00    0.00      -3.84   10.08    0.54
#  51  -23.73   -0.11    0.03    3.20    0.16    0.00    0.00     -20.44   11.56    0.58
#  52   -1.31   -0.14    0.01    0.37   -0.03    0.00    0.00      -1.10    3.19   -0.27
#  53   -1.87   -0.21    0.02    0.66   -0.05    0.00    0.00      -1.46    3.43   -0.27
#  54   -2.26   -0.23    0.01    0.63   -0.06    0.00    0.00      -1.91    2.82   -0.28
#  55   -3.76   -0.37    0.04    1.04   -0.11    0.00    0.00      -3.16    2.66   -0.28
#  56   -9.46   -1.42    2.55    0.93   -0.12    0.00    0.00      -7.53    2.25   -0.28
#  57   -1.66   -0.10    0.01    0.31   -0.03    0.00    0.00      -1.47    3.20   -0.28
#  58   -7.04   -0.01    0.00    0.84    0.06    0.00    0.00      -6.15    8.91    0.59
#  59   -2.87   -0.01    0.00    1.13    0.09    0.00    0.00      -1.66    7.31    0.58
#  60    0.07   -0.56    0.44    0.47   -0.08    0.00    0.00       0.34    1.67   -0.27
#  61    0.18   -0.65    0.32    0.91   -0.10    0.00    0.00       0.66    2.53   -0.28
#  62   -2.03   -0.21    0.01    0.58   -0.06    0.00    0.00      -1.70    2.96   -0.28
#  63   -2.76   -0.62    0.35    0.85   -0.15    0.00    0.00      -2.33    1.63   -0.28
#  64   -1.23   -0.53    0.28    0.95   -0.14    0.00    0.00      -0.66    1.94   -0.28
#  65   -0.99   -0.13    0.01    0.21   -0.03    0.00    0.00      -0.94    1.69   -0.26
#  66   -2.17   -0.26    0.03    0.44   -0.06    0.00    0.00      -2.02    1.59   -0.22
#  67   -2.49   -0.57    0.31    0.15   -0.10    0.00    0.00      -2.71    0.42   -0.28
#  68   -1.34   -0.46    0.32    0.17   -0.06    0.00    0.00      -1.37    0.66   -0.21

@<TRIPOS>MOLECULE
          T536893        15
   68    72     0     0     0



@<TRIPOS>ATOM
      1 C1         12.7571    -7.5797    87.5638 C.3        1          -0.1328
      2 C2         11.2656    -7.3384    87.3223 C.3        1          -0.0741
      3 C3         10.5899    -8.4828    86.5642 C.3        1          -0.1491
      4 C4         10.9445    -5.9406    86.7603 C.3        1          -0.1075
      5 C5         10.9911    -5.4655    88.2275 C.3        1          -0.1368
      6 C6         10.4974    -6.8846    88.5781 C.3        1          -0.1019
      7 C7          8.9767    -7.0019    88.3725 C.3        1          -0.0858
      8 C8          8.2592    -6.8258    89.7123 C.3        1           0.0937
      9 N1          8.3159    -8.0813    90.4653 N.pl3      1          -0.6568
     10 C9          7.7316    -8.1647    91.7128 C.ar       1           0.6933
     11 N2          7.1129    -7.1072    92.2290 N.ar       1          -0.6349
     12 H1          7.0716    -6.2772    91.7287 H          1           0.4364
     13 C10         6.5502    -7.1875    93.4307 C.ar       1           0.6962
     14 N3          5.9075    -6.0900    93.9664 N.pl3      1          -0.6615
     15 C11         4.9322    -6.2667    95.0452 C.3        1           0.0924
     16 C12         3.8743    -5.1645    94.9619 C.3        1          -0.0469
     17 C13         3.1712    -5.2426    93.6313 C.2        1          -0.0510
     18 C14         3.5327    -4.6177    92.4944 C.2        1          -0.0002
     19 N4          2.6486    -4.9469    91.5410 N.2        1          -0.4902
     20 C15         1.7531    -5.7520    92.0437 C.2        1           0.2059
     21 N5          2.0457    -5.9669    93.3444 N.pl3      1          -0.5663
     22 N6          6.6064    -8.3252    94.1162 N.ar       1          -0.6152
     23 C16         7.2250    -9.3823    93.6002 C.ar       1           0.6826
     24 N7          7.2832   -10.5635    94.3118 N.pl3      1          -0.6355
     25 C17         6.6629   -10.6519    95.6361 C.3        1           0.1671
     26 C18         7.6684   -10.2616    96.6887 C.ar       1          -0.1376
     27 C19         7.7749    -8.9426    97.0872 C.ar       1          -0.1010
     28 C20         8.6981    -8.5841    98.0543 C.ar       1           0.0954
     29 F1          8.8022    -7.2948    98.4440 F          1          -0.1257
     30 C21         9.5148    -9.5473    98.6227 C.ar       1          -0.1031
     31 C22         9.4087   -10.8658    98.2239 C.ar       1          -0.1213
     32 C23         8.4814   -11.2252    97.2602 C.ar       1           0.1118
     33 F2          8.3738   -12.5154    96.8742 F          1          -0.1272
     34 N8          7.7831    -9.3037    92.3959 N.ar       1          -0.6171
     35 C24         8.5397    -5.8961    87.4011 C.3        1          -0.1208
     36 C25         9.5085    -5.8789    86.2100 C.3        1          -0.1112
     37 H2         13.2292    -7.8965    86.6337 H          1           0.0601
     38 H3         13.2226    -6.6577    87.9119 H          1           0.0632
     39 H4         12.8821    -8.3570    88.3177 H          1           0.0604
     40 H5          9.5339    -8.2521    86.4243 H          1           0.0570
     41 H6         11.0669    -8.6060    85.5920 H          1           0.0639
     42 H7         10.6876    -9.4054    87.1363 H          1           0.0612
     43 H8         11.6981    -5.5172    86.0965 H          1           0.0869
     44 H9         11.9961    -5.2467    88.5882 H          1           0.0874
     45 H10        10.2726    -4.6791    88.4592 H          1           0.0697
     46 H11        10.8619    -7.2885    89.5226 H          1           0.0881
     47 H12         8.7364    -7.9783    87.9519 H          1           0.1007
     48 H13         8.7468    -6.0366    90.2846 H          1           0.0885
     49 H14         7.2184    -6.5556    89.5342 H          1           0.0864
     50 H15         8.7640    -8.8539    90.0869 H          1           0.4442
     51 H16         6.1014    -5.2016    93.6286 H          1           0.4453
     52 H17         4.4517    -7.2398    94.9448 H          1           0.0935
     53 H18         5.4408    -6.2101    96.0076 H          1           0.0847
     54 H19         3.1487    -5.2960    95.7645 H          1           0.0905
     55 H20         4.3549    -4.1912    95.0624 H          1           0.1081
     56 H21         4.3849    -3.9659    92.3719 H          1           0.1718
     57 H22         0.9185    -6.1789    91.5074 H          1           0.2141
     58 H23         1.5498    -6.5281    93.9609 H          1           0.4215
     59 H24         7.7346   -11.3349    93.9351 H          1           0.4333
     60 H25         5.8078    -9.9775    95.6826 H          1           0.1034
     61 H26         6.3295   -11.6743    95.8137 H          1           0.1045
     62 H27         7.1379    -8.1913    96.6439 H          1           0.1512
     63 H28        10.2348    -9.2677    99.3775 H          1           0.1550
     64 H29        10.0458   -11.6169    98.6669 H          1           0.1549
     65 H30         7.5287    -6.0983    87.0474 H          1           0.0659
     66 H31         8.5666    -4.9318    87.9084 H          1           0.0716
     67 H32         9.3726    -4.9608    85.6383 H          1           0.0717
     68 H33         9.3218    -6.7421    85.5711 H          1           0.0780
@<TRIPOS>BOND
     1    1    2 1
     2    1   37 1
     3    1   38 1
     4    1   39 1
     5    2    6 1
     6    2    3 1
     7    2    4 1
     8    3   40 1
     9    3   41 1
    10    3   42 1
    11    4   36 1
    12    4    5 1
    13    4   43 1
    14    5    6 1
    15    5   44 1
    16    5   45 1
    17    6    7 1
    18    6   46 1
    19    7    8 1
    20    7   35 1
    21    7   47 1
    22    8    9 1
    23    8   48 1
    24    8   49 1
    25    9   10 1
    26    9   50 1
    27   10   34 ar
    28   10   11 ar
    29   11   12 1
    30   11   13 ar
    31   13   14 1
    32   13   22 ar
    33   14   15 1
    34   14   51 1
    35   15   16 1
    36   15   52 1
    37   15   53 1
    38   16   17 1
    39   16   54 1
    40   16   55 1
    41   17   21 1
    42   17   18 2
    43   18   19 1
    44   18   56 1
    45   19   20 2
    46   20   21 1
    47   20   57 1
    48   21   58 1
    49   22   23 ar
    50   23   24 1
    51   23   34 ar
    52   24   25 1
    53   24   59 1
    54   25   26 1
    55   25   60 1
    56   25   61 1
    57   26   32 ar
    58   26   27 ar
    59   27   28 ar
    60   27   62 1
    61   28   29 1
    62   28   30 ar
    63   30   31 ar
    64   30   63 1
    65   31   32 ar
    66   31   64 1
    67   32   33 1
    68   35   36 1
    69   35   65 1
    70   35   66 1
    71   36   67 1
    72   36   68 1
##########                 Name:              T533674
##########          Protonation:                   99
##########               SMILES:   C[C@H](Cc1ccc(cc1)C(=O)OC)[NH2+]C[C@@H](c2ccc3ccc4ccccc4c3c2)O
##########            Long Name:   phenanthryl)ethyl]-[(1R)-2-(4-methoxycarbonylphenyl)-1-methyl-ethyl]ammonium
##########          FlexRecCode: 1
##########               Number:                  165
##########   Ligand Source File: /raidb/db2/rgc/tcams/tcams-0001161.db2.gz
##########           GlobalRank: 128
##########                 Rank:                    1
##########               Setnum:                  189
##########             Matchnum:                 4077
##########                Cloud:                    1
##########        Electrostatic:           -43.834492
##########        Van der Waals:           -27.136915
##########  Ligand Polar Desolv:             7.304134
########## Ligand Apolar Desolv:            -3.813908
##########      Internal Energy:             0.000000
##########      Receptor Energy: 0.0
########## Receptor Desolvation:             0.000000
########## Receptor Hydrophobic:             0.000000
##########         Total Energy: -67.48
##########        Ligand Charge:             1.000000
##########            Arbitrary:    +999.9990
##########     heavy atom count:   31
##########           pose count:    1
##########        Ligand Energy:             0.000000
# num electro vdwattr vdwrepu polsolv apolsol rdesolv rhydroe totalscore fullpol fullapo
#   1   -0.34   -1.46    0.54    0.08    0.02    0.00    0.00      -1.16    0.14    0.04
#   2    3.71   -1.81    0.80   -1.12    0.14    0.00    0.00       1.73   -2.46    0.31
#   3   -3.96   -1.35    0.16    1.01   -0.06    0.00    0.00      -4.20    2.68   -0.16
#   4    3.90   -0.95    0.05   -0.27   -0.16    0.00    0.00       2.57   -0.66   -0.39
#   5    0.73   -1.34    0.17   -0.76   -0.14    0.00    0.00      -1.34   -2.18   -0.41
#   6    0.25   -1.37    0.39   -0.31   -0.13    0.00    0.00      -1.18   -1.06   -0.46
#   7    0.82   -1.34    0.62   -0.73   -0.09    0.00    0.00      -0.73   -2.96   -0.38
#   8    0.93   -1.06    0.29   -0.18   -0.09    0.00    0.00      -0.12   -0.71   -0.33
#   9    1.64   -0.44    0.03   -0.68   -0.05    0.00    0.00       0.50   -3.15   -0.21
#  10   -0.92   -0.71    0.13    0.63   -0.07    0.00    0.00      -0.94    2.26   -0.24
#  11    6.67   -1.13    0.25   -2.64   -0.08    0.00    0.00       3.06   -6.03   -0.19
#  12   18.72   -1.69    1.89   -4.58    0.16    0.00    0.00      14.50  -17.55    0.62
#  13  -26.71   -0.25    0.21    5.27    0.16    0.00    0.00     -21.33   17.54    0.53
#  14  -11.81   -0.01    0.00    2.38    0.06    0.00    0.00      -9.38   15.78    0.42
#  15    1.25   -0.61    0.12   -0.20   -0.08    0.00    0.00       0.49   -0.87   -0.36
#  16   -3.15   -0.47    0.06    0.82   -0.03    0.00    0.00      -2.76    4.15   -0.15
#  17   19.84   -2.15    1.51   -4.73    0.48    0.00    0.00      14.95  -15.81    1.61
#  18    1.83   -0.51    0.03   -0.35   -0.06    0.00    0.00       0.93   -1.92   -0.35
#  19    0.60   -0.26    0.01   -0.21   -0.05    0.00    0.00       0.09   -1.85   -0.43
#  20    0.19   -0.29    0.01   -0.21   -0.05    0.00    0.00      -0.36   -1.84   -0.46
#  21    0.07   -0.61    0.06   -0.20   -0.08    0.00    0.00      -0.75   -1.03   -0.40
#  22    0.25   -0.82    0.09   -0.19   -0.11    0.00    0.00      -0.78   -0.76   -0.44
#  23    0.21   -1.42    0.22   -0.35   -0.17    0.00    0.00      -1.52   -0.89   -0.44
#  24    0.19   -1.82    0.38   -0.22   -0.17    0.00    0.00      -1.63   -0.51   -0.40
#  25    0.47   -3.16    2.16   -0.36   -0.24    0.00    0.00      -1.13   -0.68   -0.46
#  26    1.16   -3.55    4.24   -0.52   -0.29    0.00    0.00       1.04   -0.84   -0.47
#  27    2.28   -2.90    1.48   -0.58   -0.25    0.00    0.00       0.03   -1.09   -0.47
#  28    2.07   -2.51    1.25   -0.43   -0.19    0.00    0.00       0.20   -0.99   -0.44
#  29    0.19   -1.72    0.46   -0.21   -0.15    0.00    0.00      -1.42   -0.58   -0.41
#  30    0.14   -1.05    0.21   -0.20   -0.10    0.00    0.00      -1.00   -0.83   -0.41
#  31    0.96   -0.99    0.17   -0.44   -0.10    0.00    0.00      -0.40   -1.81   -0.42
#  32    1.33   -1.22    0.14   -0.83   -0.16    0.00    0.00      -0.75   -2.33   -0.45
#  33    0.41   -1.53    0.22   -0.51   -0.19    0.00    0.00      -1.59   -1.26   -0.46
#  34   -1.54   -0.68    0.39    0.91   -0.15    0.00    0.00      -1.07    1.74   -0.28
#  35   -0.49   -0.43    0.11    0.09   -0.13    0.00    0.00      -0.86    0.18   -0.28
#  36   -0.73   -0.34    0.07    0.11   -0.11    0.00    0.00      -1.00    0.30   -0.28
#  37   -0.69   -0.20    0.02    0.41   -0.04    0.00    0.00      -0.50    2.50   -0.27
#  38   -0.71   -0.17    0.03    0.97   -0.04    0.00    0.00       0.07    6.90   -0.28
#  39   -1.27   -0.11    0.01    0.35   -0.03    0.00    0.00      -1.05    3.44   -0.28
#  40   -1.75   -0.13    0.00    0.57   -0.03    0.00    0.00      -1.34    4.93   -0.28
#  41   -4.47   -0.22    0.02    1.15   -0.06    0.00    0.00      -3.58    5.27   -0.28
#  42   -4.16   -0.77    0.88    1.39   -0.09    0.00    0.00      -2.75    3.09   -0.21
#  43   -3.40   -0.35    0.04    0.67   -0.09    0.00    0.00      -3.13    2.04   -0.28
#  44   -2.65   -0.25    0.02    0.86   -0.07    0.00    0.00      -2.09    3.32   -0.28
#  45   -2.19   -0.07    0.00    0.35   -0.02    0.00    0.00      -1.92    5.53   -0.28
#  46   -4.20   -0.28    0.06    1.42   -0.05    0.00    0.00      -3.05    6.11   -0.23
#  47   -2.04   -0.06    0.00    0.26   -0.02    0.00    0.00      -1.86    4.47   -0.28
#  48  -19.23   -0.13    0.02    4.44    0.34    0.00    0.00     -14.55   12.64    0.98
#  49   -0.62   -0.03    0.00    0.18   -0.01    0.00    0.00      -0.48    5.02   -0.22
#  50   -0.21   -0.03    0.00    0.07   -0.01    0.00    0.00      -0.18    1.96   -0.28
#  51   -0.23   -0.12    0.01    0.15   -0.04    0.00    0.00      -0.22    1.21   -0.28
#  52   -0.32   -0.36    0.05    0.24   -0.11    0.00    0.00      -0.48    0.63   -0.28
#  53   -0.56   -1.11    2.91    0.31   -0.14    0.00    0.00       1.40    0.60   -0.28
#  54   -1.48   -0.57    0.23    0.54   -0.16    0.00    0.00      -1.45    0.92   -0.28
#  55   -3.65   -0.59    0.19    0.77   -0.13    0.00    0.00      -3.42    1.61   -0.28
#  56   -3.81   -0.47    0.20    0.88   -0.07    0.00    0.00      -3.27    2.70   -0.22
#  57   -3.39   -0.29    0.06    0.78   -0.05    0.00    0.00      -2.88    3.50   -0.22
#  58   -2.26   -0.25    0.02    1.09   -0.09    0.00    0.00      -1.49    3.58   -0.28
#  59   -1.69   -0.38    0.07    0.17   -0.09    0.00    0.00      -1.92    0.50   -0.27

@<TRIPOS>MOLECULE
          T533674        99
   59    62     0     0     0



@<TRIPOS>ATOM
      1 C1          8.9870   -10.8502    98.7206 C.3        1           0.0325
      2 O1          7.9899   -10.0012    98.1486 O.3        1          -0.3490
      3 C2          7.6959   -10.1934    96.8480 C.2        1           0.4981
      4 O2          8.2701   -11.0579    96.2168 O.2        1          -0.4897
      5 C3          6.6751    -9.3526    96.1895 C.ar       1          -0.1067
      6 C4          6.3638    -9.5529    94.8433 C.ar       1          -0.0507
      7 C5          5.4097    -8.7643    94.2345 C.ar       1          -0.1536
      8 C6          4.7617    -7.7766    94.9550 C.ar       1          -0.0940
      9 C7          3.7204    -6.9189    94.2832 C.3        1          -0.1043
     10 C8          4.3901    -5.6829    93.6793 C.3        1           0.0296
     11 C9          5.0738    -4.8804    94.7881 C.3        1          -0.1842
     12 N1          5.3914    -6.1026    92.6898 N.4        1          -0.5064
     13 H1          6.0469    -5.3513    92.5352 H          1           0.4291
     14 H2          5.8840    -6.9135    93.0330 H          1           0.4258
     15 C10         4.7211    -6.4354    91.4257 C.3        1          -0.0476
     16 C11         5.7640    -6.8726    90.3952 C.3        1           0.1366
     17 O3          6.9226    -6.0439    90.5089 O.3        1          -0.5464
     18 C12         5.1866    -6.7414    89.0094 C.ar       1          -0.1394
     19 C13         4.0479    -7.4619    88.6683 C.ar       1          -0.1114
     20 C14         3.5035    -7.3631    87.4215 C.ar       1          -0.0907
     21 C15         4.0967    -6.5242    86.4675 C.ar       1          -0.0284
     22 C16         3.5536    -6.4011    85.1675 C.ar       1          -0.1194
     23 C17         4.1163    -5.5963    84.2435 C.ar       1          -0.0807
     24 C18         5.2750    -4.8384    84.5329 C.ar       1          -0.0514
     25 C19         5.8523    -4.0039    83.5655 C.ar       1          -0.0968
     26 C20         6.9697    -3.2841    83.8721 C.ar       1          -0.1111
     27 C21         7.5478    -3.3656    85.1334 C.ar       1          -0.1038
     28 C22         7.0096    -4.1697    86.0973 C.ar       1          -0.1117
     29 C23         5.8655    -4.9181    85.8142 C.ar       1          -0.0429
     30 C24         5.2537    -5.7931    86.8184 C.ar       1          -0.0371
     31 C25         5.7845    -5.9114    88.1044 C.ar       1          -0.0807
     32 C26         5.0650    -7.5730    96.2895 C.ar       1          -0.1136
     33 C27         6.0133    -8.3579    96.9122 C.ar       1          -0.0432
     34 H3          9.1269   -10.5905    99.7698 H          1           0.1098
     35 H4          8.6673   -11.8895    98.6431 H          1           0.0665
     36 H5          9.9271   -10.7184    98.1851 H          1           0.0656
     37 H6          6.8691   -10.3233    94.2797 H          1           0.1487
     38 H7          5.1682    -8.9179    93.1932 H          1           0.1336
     39 H8          3.2333    -7.4906    93.4934 H          1           0.1264
     40 H9          2.9776    -6.6074    95.0175 H          1           0.1035
     41 H10         3.6370    -5.0625    93.1934 H          1           0.1421
     42 H11         5.5509    -3.9998    94.3579 H          1           0.0836
     43 H12         4.3309    -4.5689    95.5223 H          1           0.1094
     44 H13         5.8269    -5.5007    95.2740 H          1           0.0852
     45 H14         4.0128    -7.2470    91.5928 H          1           0.1442
     46 H15         4.1889    -5.5594    91.0550 H          1           0.1408
     47 H16         6.0409    -7.9111    90.5764 H          1           0.1302
     48 H17         6.7504    -5.1043    90.3595 H          1           0.3880
     49 H18         3.5882    -8.1091    89.4004 H          1           0.1235
     50 H19         2.6189    -7.9294    87.1699 H          1           0.1365
     51 H20         2.6692    -6.9645    84.9088 H          1           0.1329
     52 H21         3.6727    -5.5288    83.2611 H          1           0.1336
     53 H22         5.4141    -3.9314    82.5810 H          1           0.1339
     54 H23         7.4115    -2.6422    83.1242 H          1           0.1305
     55 H24         8.4327    -2.7868    85.3536 H          1           0.1292
     56 H25         7.4668    -4.2261    87.0741 H          1           0.1250
     57 H26         6.6664    -5.3526    88.3809 H          1           0.1308
     58 H27         4.5554    -6.8003    96.8461 H          1           0.1418
     59 H28         6.2461    -8.2008    97.9550 H          1           0.1480
@<TRIPOS>BOND
     1    1    2 1
     2    1   34 1
     3    1   35 1
     4    1   36 1
     5    2    3 1
     6    3    4 2
     7    3    5 1
     8    5   33 ar
     9    5    6 ar
    10    6    7 ar
    11    6   37 1
    12    7    8 ar
    13    7   38 1
    14    8    9 1
    15    8   32 ar
    16    9   10 1
    17    9   39 1
    18    9   40 1
    19   10   11 1
    20   10   12 1
    21   10   41 1
    22   11   42 1
    23   11   43 1
    24   11   44 1
    25   12   13 1
    26   12   14 1
    27   12   15 1
    28   15   16 1
    29   15   45 1
    30   15   46 1
    31   16   17 1
    32   16   18 1
    33   16   47 1
    34   17   48 1
    35   18   31 ar
    36   18   19 ar
    37   19   20 ar
    38   19   49 1
    39   20   21 ar
    40   20   50 1
    41   21   30 ar
    42   21   22 ar
    43   22   23 ar
    44   22   51 1
    45   23   24 ar
    46   23   52 1
    47   24   29 ar
    48   24   25 ar
    49   25   26 ar
    50   25   53 1
    51   26   27 ar
    52   26   54 1
    53   27   28 ar
    54   27   55 1
    55   28   29 ar
    56   28   56 1
    57   29   30 ar
    58   30   31 ar
    59   31   57 1
    60   32   33 ar
    61   32   58 1
    62   33   59 1
##########                 Name:              T525516
##########          Protonation:                   95
##########               SMILES:   c1cc(cc(c1)Cl)NC(=O)N2CCC[NH+](CC2)CCCCCCNC(=O)/C=C/c3ccc(c(c3)Cl)Cl
##########            Long Name:   ,4-dichlorophenyl)prop-2-enoyl]amino]hexyl]-1,4-diazepan-4-ium-1-carboxamide
##########          FlexRecCode: 1
##########               Number:                  119
##########   Ligand Source File: /raidb/db2/rgc/tcams/tcams-0000032.db2.gz
##########           GlobalRank: 129
##########                 Rank:                    1
##########               Setnum:                  217
##########             Matchnum:                  175
##########                Cloud:                    1
##########        Electrostatic:           -37.723965
##########        Van der Waals:           -32.257561
##########  Ligand Polar Desolv:             7.255108
########## Ligand Apolar Desolv:            -4.712118
##########      Internal Energy:             0.000000
##########      Receptor Energy: 0.0
########## Receptor Desolvation:             0.000000
########## Receptor Hydrophobic:             0.000000
##########         Total Energy: -67.44
##########        Ligand Charge:             1.000000
##########            Arbitrary:    +999.9990
##########     heavy atom count:   36
##########           pose count:    1
##########        Ligand Energy:             0.000000
# num electro vdwattr vdwrepu polsolv apolsol rdesolv rhydroe totalscore fullpol fullapo
#   1    0.55   -6.49    4.25   -0.29   -0.60    0.00    0.00      -2.57   -0.47   -0.99
#   2    0.12   -1.67    0.19   -0.19   -0.17    0.00    0.00      -1.72   -0.33   -0.30
#   3    1.04   -2.08    0.57   -0.63   -0.26    0.00    0.00      -1.36   -1.13   -0.46
#   4    1.06   -2.12    0.81   -0.46   -0.24    0.00    0.00      -0.95   -0.89   -0.47
#   5    1.61   -1.64    0.33   -0.74   -0.21    0.00    0.00      -0.65   -1.61   -0.46
#   6   -1.05   -1.44    0.19    0.70   -0.25    0.00    0.00      -1.85    1.88   -0.67
#   7    3.39   -1.43    0.27   -3.48    0.57    0.00    0.00      -0.67  -10.15    1.67
#   8   -5.23   -1.42    0.30    3.54   -0.69    0.00    0.00      -3.50   10.28   -2.02
#   9    3.96   -2.11    0.58   -2.60    0.14    0.00    0.00      -0.04   -5.97    0.31
#  10    8.91   -0.86    0.06   -3.82    0.42    0.00    0.00       4.72  -13.17    1.44
#  11   -1.94   -0.62    0.03    0.66   -0.15    0.00    0.00      -2.02    1.99   -0.46
#  12    5.18   -0.99    0.13   -1.82   -0.10    0.00    0.00       2.40   -4.28   -0.24
#  13    0.42   -1.08    0.28   -0.10   -0.13    0.00    0.00      -0.60   -0.27   -0.36
#  14   13.53   -1.56    1.21   -3.07    0.05    0.00    0.00      10.16  -11.14    0.18
#  15  -22.63   -0.12    0.04    4.41    0.12    0.00    0.00     -18.17   16.39    0.45
#  16    0.62   -1.13    0.38    0.01   -0.10    0.00    0.00      -0.22    0.04   -0.34
#  17    4.07   -0.91    0.25   -1.15   -0.05    0.00    0.00       2.22   -4.20   -0.20
#  18    0.74   -0.82    0.15   -0.80   -0.06    0.00    0.00      -0.80   -2.84   -0.22
#  19    0.45   -0.52    0.06   -0.53   -0.05    0.00    0.00      -0.58   -2.41   -0.22
#  20    0.83   -0.16    0.00   -0.20   -0.02    0.00    0.00       0.44   -2.00   -0.22
#  21   -0.32   -0.09    0.00    0.07   -0.03    0.00    0.00      -0.36    1.26   -0.43
#  22    1.13   -0.08    0.00   -0.34    0.10    0.00    0.00       0.82   -7.91    2.33
#  23   -0.32   -0.14    0.00    0.24   -0.04    0.00    0.00      -0.26    3.64   -0.65
#  24    0.37   -0.22    0.01   -0.07    0.04    0.00    0.00       0.13   -0.75    0.39
#  25    0.08   -0.18    0.01   -0.13   -0.03    0.00    0.00      -0.25   -1.76   -0.43
#  26    0.00   -0.43    0.10   -0.04   -0.05    0.00    0.00      -0.41   -0.33   -0.44
#  27    0.01   -0.39    0.04   -0.05   -0.05    0.00    0.00      -0.43   -0.39   -0.41
#  28    0.04   -0.19    0.01   -0.05   -0.04    0.00    0.00      -0.23   -0.68   -0.44
#  29    0.06   -0.27    0.02   -0.07   -0.04    0.00    0.00      -0.31   -0.78   -0.46
#  30    0.01   -0.50    0.03   -0.05   -0.06    0.00    0.00      -0.55   -0.26   -0.30
#  31    0.02   -1.38    0.17   -0.06   -0.24    0.00    0.00      -1.48   -0.22   -0.95
#  32    0.01   -0.71    0.05   -0.06   -0.08    0.00    0.00      -0.80   -0.23   -0.30
#  33    0.01   -3.71    2.19   -0.07   -0.40    0.00    0.00      -1.99   -0.16   -0.95
#  34    0.00   -0.81    0.15   -0.11   -0.10    0.00    0.00      -0.87   -0.49   -0.45
#  35    0.92   -0.39    0.02   -0.06   -0.08    0.00    0.00       0.41   -0.30   -0.39
#  36   -2.03   -0.48    0.03    0.55   -0.11    0.00    0.00      -2.04    2.20   -0.42
#  37    0.66   -1.51    0.18   -0.46   -0.17    0.00    0.00      -1.30   -1.05   -0.39
#  38   -0.92   -0.58    0.33    0.47   -0.15    0.00    0.00      -0.86    0.86   -0.28
#  39   -2.62   -0.50    0.13    0.98   -0.13    0.00    0.00      -2.15    2.07   -0.28
#  40   -1.92   -0.27    0.02    0.88   -0.08    0.00    0.00      -1.38    2.99   -0.28
#  41   -1.48   -0.02    0.00    1.72    0.08    0.00    0.00       0.30    8.72    0.41
#  42   -1.60   -0.14    0.00    0.29   -0.03    0.00    0.00      -1.48    2.27   -0.20
#  43   -1.84   -0.27    0.03    0.59   -0.08    0.00    0.00      -1.57    2.03   -0.28
#  44   -4.13   -0.51    0.13    1.73   -0.12    0.00    0.00      -2.90    4.19   -0.28
#  45   -3.72   -0.39    0.12    1.61   -0.09    0.00    0.00      -2.46    4.57   -0.25
#  46   -3.43   -0.16    0.01    0.50   -0.04    0.00    0.00      -3.14    2.87   -0.24
#  47   -6.41   -0.66    0.31    2.38   -0.09    0.00    0.00      -4.47    5.79   -0.21
#  48   -2.39   -0.13    0.01    0.71   -0.04    0.00    0.00      -1.84    5.11   -0.27
#  49   -5.23   -0.87    0.77    1.53   -0.10    0.00    0.00      -3.90    4.05   -0.27
#  50   -3.69   -0.74    0.71    0.90   -0.06    0.00    0.00      -2.89    3.22   -0.21
#  51   -1.70   -0.09    0.00    0.28   -0.02    0.00    0.00      -1.53    3.32   -0.28
#  52   -0.23   -0.12    0.01    0.24   -0.04    0.00    0.00      -0.14    1.73   -0.28
#  53   -0.97   -0.71    0.46    0.63   -0.11    0.00    0.00      -0.71    1.66   -0.28
#  54   -0.22   -0.17    0.02    0.18   -0.04    0.00    0.00      -0.23    1.21   -0.28
#  55   -0.79   -0.22    0.04    0.22   -0.05    0.00    0.00      -0.81    1.17   -0.28
#  56   -0.33   -0.04    0.00    0.07   -0.01    0.00    0.00      -0.32    1.46   -0.28
#  57   -0.76   -0.04    0.00    0.06   -0.01    0.00    0.00      -0.75    1.46   -0.28
#  58   -0.23   -0.03    0.00    0.01   -0.01    0.00    0.00      -0.26    0.34   -0.28
#  59   -0.12   -0.03    0.00    0.01   -0.01    0.00    0.00      -0.15    0.33   -0.28
#  60   -0.45    0.00    0.00    0.14    0.01    0.00    0.00      -0.30    6.73    0.56
#  61   -0.07   -0.02    0.00    0.08   -0.01    0.00    0.00      -0.02    3.07   -0.21
#  62   -0.02   -0.12    0.03    0.05   -0.03    0.00    0.00      -0.08    0.50   -0.26
#  63   -0.08   -0.02    0.00    0.06    0.00    0.00    0.00      -0.04    3.19   -0.21
#  64   -0.10   -0.04    0.00    0.07   -0.01    0.00    0.00      -0.08    1.95   -0.28
#  65    0.03   -0.31    0.13    0.21   -0.07    0.00    0.00      -0.01    0.86   -0.28
#  66   -1.67   -0.10    0.01    0.23   -0.03    0.00    0.00      -1.57    2.45   -0.28
#  67   -2.22   -0.08    0.00    0.41   -0.02    0.00    0.00      -1.90    6.03   -0.26
#  68   -2.73   -0.24    0.04    1.02   -0.06    0.00    0.00      -1.97    4.80   -0.28
#  69   -1.37   -0.13    0.01    0.12   -0.03    0.00    0.00      -1.40    0.99   -0.24
#  70   -0.62   -0.35    0.06    0.22   -0.06    0.00    0.00      -0.74    0.73   -0.20

@<TRIPOS>MOLECULE
          T525516        95
   70    72     0     0     0



@<TRIPOS>ATOM
      1 Cl1         8.7766   -13.8475    97.3503 Cl         1          -0.0565
      2 C1          8.4368   -12.1504    97.4846 C.ar       1          -0.0159
      3 C2          9.0112   -11.4084    98.5022 C.ar       1          -0.1196
      4 C3          8.7427   -10.0567    98.6121 C.ar       1          -0.0816
      5 C4          7.9002    -9.4423    97.7060 C.ar       1          -0.1402
      6 C5          7.3224   -10.1832    96.6837 C.ar       1           0.1594
      7 N1          6.4686    -9.5630    95.7646 N.am       1          -0.6762
      8 C6          5.7302    -8.5004    96.1415 C.2        1           0.7005
      9 O1          5.3609    -8.3952    97.2952 O.2        1          -0.5487
     10 N2          5.4012    -7.5543    95.2396 N.am       1          -0.6365
     11 C7          4.5938    -6.3700    95.6289 C.3        1           0.0947
     12 C8          4.9174    -5.0192    95.0361 C.3        1          -0.1568
     13 C9          4.1903    -4.8857    93.6824 C.3        1          -0.0116
     14 N3          4.7615    -5.7087    92.6801 N.4        1          -0.3662
     15 H1          5.7279    -5.4434    92.5620 H          1           0.4173
     16 C10         4.0563    -5.4583    91.4160 C.3        1          -0.0199
     17 C11         4.9268    -5.9212    90.2460 C.3        1          -0.1483
     18 C12         4.1924    -5.6604    88.9294 C.3        1          -0.1171
     19 C13         5.0629    -6.1233    87.7594 C.3        1          -0.1177
     20 C14         5.3477    -7.6202    87.8967 C.3        1          -0.1335
     21 C15         4.0275    -8.3934    87.8874 C.3        1           0.1179
     22 N4          4.3001    -9.8269    88.0189 N.am       1          -0.7303
     23 C16         4.3619   -10.3916    89.2411 C.2        1           0.5485
     24 O2          4.1913    -9.7109    90.2353 O.2        1          -0.5392
     25 C17         4.6343   -11.8239    89.3725 C.2        1          -0.2122
     26 C18         3.7358   -12.6286    89.9754 C.2        1          -0.0109
     27 C19         4.0098   -14.0685    90.1076 C.ar       1          -0.0636
     28 C20         4.9537   -14.6831    89.2782 C.ar       1          -0.0861
     29 C21         5.2061   -16.0319    89.4073 C.ar       1          -0.0991
     30 C22         4.5273   -16.7796    90.3559 C.ar       1          -0.0213
     31 Cl2         4.8519   -18.4778    90.5116 Cl         1          -0.0373
     32 C23         3.5901   -16.1777    91.1815 C.ar       1          -0.0336
     33 Cl3         2.7456   -17.1236    92.3672 Cl         1          -0.0368
     34 C24         3.3317   -14.8272    91.0666 C.ar       1          -0.0736
     35 C25         4.7068    -7.1460    92.9617 C.3        1          -0.0468
     36 C26         5.8388    -7.6578    93.8242 C.3        1           0.1146
     37 C27         7.5972   -11.5399    96.5721 C.ar       1          -0.1180
     38 H2          9.6703   -11.8864    99.2119 H          1           0.1396
     39 H3          9.1919    -9.4806    99.4075 H          1           0.1421
     40 H4          7.6908    -8.3864    97.7930 H          1           0.1331
     41 H5          6.4083    -9.8979    94.8563 H          1           0.4092
     42 H6          3.5540    -6.5910    95.3877 H          1           0.0924
     43 H7          4.6576    -6.2741    96.7127 H          1           0.0944
     44 H8          4.5807    -4.2328    95.7118 H          1           0.1280
     45 H9          5.9935    -4.9346    94.8837 H          1           0.0946
     46 H10         3.1448    -5.1644    93.8143 H          1           0.1284
     47 H11         4.2392    -3.8469    93.3563 H          1           0.1393
     48 H12         3.1159    -6.0094    91.4093 H          1           0.1337
     49 H13         3.8533    -4.3919    91.3182 H          1           0.1303
     50 H14         5.8673    -5.3703    90.2528 H          1           0.0871
     51 H15         5.1297    -6.9877    90.3438 H          1           0.0891
     52 H16         3.2518    -6.2114    88.9228 H          1           0.0761
     53 H17         3.9894    -4.5940    88.8317 H          1           0.0750
     54 H18         4.5397    -5.9375    86.8215 H          1           0.0706
     55 H19         6.0035    -5.5724    87.7662 H          1           0.0714
     56 H20         5.9679    -7.9502    87.0633 H          1           0.0728
     57 H21         5.8708    -7.8061    88.8348 H          1           0.0724
     58 H22         3.4073    -8.0636    88.7210 H          1           0.0687
     59 H23         3.5043    -8.2075    86.9495 H          1           0.0690
     60 H24         4.4360   -10.3694    87.2263 H          1           0.4026
     61 H25         5.5550   -12.2361    88.9865 H          1           0.1323
     62 H26         2.8153   -12.2163    90.3615 H          1           0.1425
     63 H27         5.4837   -14.1019    88.5381 H          1           0.1431
     64 H28         5.9345   -16.5073    88.7673 H          1           0.1485
     65 H29         2.6047   -14.3583    91.7132 H          1           0.1501
     66 H30         3.7630    -7.3640    93.4617 H          1           0.1310
     67 H31         4.7231    -7.6842    92.0139 H          1           0.1464
     68 H32         6.7310    -7.0515    93.6676 H          1           0.1025
     69 H33         6.0508    -8.6980    93.5775 H          1           0.1339
     70 H34         7.1525   -12.1178    95.7756 H          1           0.1515
@<TRIPOS>BOND
     1    1    2 1
     2    2   37 ar
     3    2    3 ar
     4    3    4 ar
     5    3   38 1
     6    4    5 ar
     7    4   39 1
     8    5    6 ar
     9    5   40 1
    10    6    7 1
    11    6   37 ar
    12    7    8 am
    13    7   41 1
    14    8    9 2
    15    8   10 am
    16   10   36 1
    17   10   11 1
    18   11   12 1
    19   11   42 1
    20   11   43 1
    21   12   13 1
    22   12   44 1
    23   12   45 1
    24   13   14 1
    25   13   46 1
    26   13   47 1
    27   14   15 1
    28   14   16 1
    29   14   35 1
    30   16   17 1
    31   16   48 1
    32   16   49 1
    33   17   18 1
    34   17   50 1
    35   17   51 1
    36   18   19 1
    37   18   52 1
    38   18   53 1
    39   19   20 1
    40   19   54 1
    41   19   55 1
    42   20   21 1
    43   20   56 1
    44   20   57 1
    45   21   22 1
    46   21   58 1
    47   21   59 1
    48   22   23 am
    49   22   60 1
    50   23   24 2
    51   23   25 1
    52   25   26 2
    53   25   61 1
    54   26   27 1
    55   26   62 1
    56   27   34 ar
    57   27   28 ar
    58   28   29 ar
    59   28   63 1
    60   29   30 ar
    61   29   64 1
    62   30   31 1
    63   30   32 ar
    64   32   33 1
    65   32   34 ar
    66   34   65 1
    67   35   36 1
    68   35   66 1
    69   35   67 1
    70   36   68 1
    71   36   69 1
    72   37   70 1
##########                 Name:              T543045
##########          Protonation:                   26
##########               SMILES:   COc1cc2c(nccc2[C@H](O)C[NH+]3CC[C@@H](CC3)[NH2+]CCOc4c(cccc4)C(F)(F)F)cc1
##########            Long Name:   yl)ethyl]piperidin-1-ium-4-yl]-[2-[2-(trifluoromethyl)phenoxy]ethyl]ammonium
##########          FlexRecCode: 1
##########               Number:                   45
##########   Ligand Source File: /raidb/db2/rgc/tcams/tcams-0002316.db2.gz
##########           GlobalRank: 130
##########                 Rank:                    1
##########               Setnum:                   52
##########             Matchnum:                  183
##########                Cloud:                    1
##########        Electrostatic:           -47.392952
##########        Van der Waals:           -26.769569
##########  Ligand Polar Desolv:            10.232490
########## Ligand Apolar Desolv:            -3.501152
##########      Internal Energy:             0.000000
##########      Receptor Energy: 0.0
########## Receptor Desolvation:             0.000000
########## Receptor Hydrophobic:             0.000000
##########         Total Energy: -67.43
##########        Ligand Charge:             2.000000
##########            Arbitrary:    +999.9990
##########     heavy atom count:   35
##########           pose count:    1
##########        Ligand Energy:             0.000000
# num electro vdwattr vdwrepu polsolv apolsol rdesolv rhydroe totalscore fullpol fullapo
#   1   -0.58   -1.94    0.77    0.12    0.02    0.00    0.00      -1.61    0.23    0.03
#   2    7.20   -1.58    0.31   -2.76    0.39    0.00    0.00       3.55   -6.63    0.93
#   3   -0.80   -1.81    0.55    0.69   -0.12    0.00    0.00      -1.50    1.83   -0.31
#   4    0.87   -3.27    3.73   -1.33   -0.20    0.00    0.00      -0.20   -2.90   -0.43
#   5    0.11   -2.34    0.82   -0.91   -0.22    0.00    0.00      -2.55   -1.90   -0.46
#   6   -0.27   -1.19    0.13    0.11   -0.28    0.00    0.00      -1.50    0.29   -0.73
#   7    0.90   -1.38    0.26   -2.83    0.74    0.00    0.00      -2.30   -7.61    2.00
#   8   -0.20   -0.91    0.23    0.32   -0.22    0.00    0.00      -0.78    1.43   -0.97
#   9    0.20   -0.35    0.01   -0.53   -0.06    0.00    0.00      -0.73   -3.93   -0.44
#  10    0.22   -0.36    0.01   -0.14   -0.05    0.00    0.00      -0.31   -0.99   -0.35
#  11   -0.32   -0.14    0.00    0.46   -0.01    0.00    0.00      -0.01    5.40   -0.11
#  12    0.69   -0.08    0.00   -0.97    0.07    0.00    0.00      -0.29  -20.98    1.58
#  13    0.13   -0.24    0.01   -0.14   -0.05    0.00    0.00      -0.30   -0.92   -0.32
#  14    3.63   -0.29    0.01   -2.77    0.04    0.00    0.00       0.62  -17.73    0.27
#  15   -3.17    0.00    0.00    0.86    0.02    0.00    0.00      -2.30   22.54    0.49
#  16    0.02   -0.31    0.02   -0.04   -0.07    0.00    0.00      -0.37   -0.20   -0.38
#  17    2.64   -0.30    0.01   -1.60   -0.04    0.00    0.00       0.71   -8.68   -0.24
#  18   -0.44   -0.86    0.32    0.55   -0.06    0.00    0.00      -0.49    2.23   -0.23
#  19    5.35   -0.93    0.43   -2.19   -0.05    0.00    0.00       2.61   -9.06   -0.20
#  20    0.23   -0.59    0.08   -0.33   -0.09    0.00    0.00      -0.70   -1.37   -0.37
#  21   15.39   -0.91    0.27   -6.67    0.16    0.00    0.00       8.25  -25.95    0.63
#  22   -8.12   -0.01    0.00    2.74    0.06    0.00    0.00      -5.33   24.85    0.56
#  23  -17.23   -0.03    0.00    5.14    0.12    0.00    0.00     -11.99   22.08    0.53
#  24    0.13   -0.69    0.06    0.47   -0.15    0.00    0.00      -0.18    1.33   -0.42
#  25   -0.55   -0.97    0.17   -0.45   -0.04    0.00    0.00      -1.83   -1.13   -0.09
#  26    4.75   -0.90    0.05   -3.80    0.27    0.00    0.00       0.38  -10.44    0.75
#  27   -2.01   -1.42    0.15    2.43   -0.13    0.00    0.00      -0.97    5.68   -0.31
#  28    2.93   -2.63    0.97   -2.73   -0.22    0.00    0.00      -1.68   -5.13   -0.42
#  29    0.72   -3.01    0.78   -0.89   -0.28    0.00    0.00      -2.68   -1.52   -0.47
#  30    2.16   -2.37    0.86   -2.05   -0.26    0.00    0.00      -1.67   -3.70   -0.47
#  31    0.35   -1.52    0.23   -0.67   -0.19    0.00    0.00      -1.79   -1.56   -0.44
#  32    2.06   -1.28    0.12   -2.01   -0.14    0.00    0.00      -1.24   -5.46   -0.37
#  33   -3.48   -0.79    0.13    3.28   -0.02    0.00    0.00      -0.88   10.64   -0.06
#  34    1.10   -0.61    0.14   -0.94   -0.12    0.00    0.00      -0.42   -3.54   -0.44
#  35    2.08   -1.05    0.60   -1.01   -0.13    0.00    0.00       0.49   -3.69   -0.47
#  36   -0.12   -1.43    0.74   -1.31   -0.17    0.00    0.00      -2.28   -3.73   -0.47
#  37    0.12   -0.74    0.06   -0.41   -0.10    0.00    0.00      -1.07   -1.67   -0.40
#  38    0.74   -0.97    0.11   -0.67   -0.11    0.00    0.00      -0.90   -2.58   -0.43
#  39   -2.51   -0.77    0.43    0.35   -0.13    0.00    0.00      -2.63    0.74   -0.27
#  40   -2.38   -1.27    3.39    0.52   -0.12    0.00    0.00       0.14    1.19   -0.27
#  41   -2.52   -0.73    0.72    1.38   -0.13    0.00    0.00      -1.29    2.96   -0.28
#  42   -1.04   -0.89    1.69    0.92   -0.10    0.00    0.00       0.58    2.03   -0.22
#  43   -0.53   -0.70    0.50    0.28   -0.14    0.00    0.00      -0.59    0.56   -0.28
#  44   -0.24   -0.23    0.09    0.40   -0.04    0.00    0.00      -0.02    2.78   -0.28
#  45   -0.18   -0.04    0.00    0.26   -0.01    0.00    0.00       0.03    7.07   -0.22
#  46   -0.61   -0.04    0.00    0.25   -0.01    0.00    0.00      -0.41    6.54   -0.18
#  47   -0.46    0.00    0.00    0.38    0.02    0.00    0.00      -0.06   16.38    1.00
#  48   -0.39   -0.17    0.02    1.26   -0.05    0.00    0.00       0.68    7.62   -0.28
#  49   -0.24   -0.05    0.00    0.38   -0.01    0.00    0.00       0.08    7.81   -0.28
#  50   -1.65   -0.22    0.06    1.63   -0.05    0.00    0.00      -0.24    8.68   -0.28
#  51   -0.72   -0.05    0.00    0.36   -0.01    0.00    0.00      -0.43    7.16   -0.28
#  52   -2.16   -0.08    0.00    0.57   -0.02    0.00    0.00      -1.69    7.41   -0.28
#  53   -1.02   -0.08    0.00    0.48   -0.02    0.00    0.00      -0.63    6.14   -0.28
#  54   -6.89   -0.56    0.35    3.33   -0.08    0.00    0.00      -3.84   11.81   -0.28
#  55   -6.38   -1.03    2.54    1.84   -0.06    0.00    0.00      -3.08    6.91   -0.22
#  56   -2.42   -0.09    0.00    0.51   -0.03    0.00    0.00      -2.02    5.59   -0.28
#  57   -2.60   -0.11    0.01    0.66   -0.03    0.00    0.00      -2.07    5.78   -0.22
#  58   -4.21   -0.41    0.13    2.80   -0.08    0.00    0.00      -1.78    9.37   -0.28
#  59   -5.76   -0.34    0.06    2.58   -0.07    0.00    0.00      -3.53    7.49   -0.21
#  60   -3.77   -0.13    0.00    1.27   -0.03    0.00    0.00      -2.66   11.52   -0.28
#  61   -3.28   -0.35    0.09    1.18   -0.09    0.00    0.00      -2.45    3.50   -0.26
#  62   -2.42   -0.62    0.33    1.80   -0.09    0.00    0.00      -1.00    5.61   -0.27
#  63   -2.15   -0.91    0.97    3.51   -0.11    0.00    0.00       1.31    6.88   -0.22
#  64   -3.13   -0.98    0.42    2.15   -0.18    0.00    0.00      -1.72    3.42   -0.28
#  65   -2.87   -0.52    0.16    0.85   -0.13    0.00    0.00      -2.50    1.90   -0.28
#  66   -1.54   -0.22    0.01    0.36   -0.06    0.00    0.00      -1.43    1.65   -0.25
#  67   -0.76   -0.12    0.01    0.97   -0.02    0.00    0.00       0.08    8.81   -0.22

@<TRIPOS>MOLECULE
          T543045        26
   67    70     0     0     0



@<TRIPOS>ATOM
      1 C1          8.3094    -3.3904    85.5101 C.3        1           0.0188
      2 O1          7.5231    -4.3702    86.1909 O.3        1          -0.3161
      3 C2          6.4774    -4.9055    85.5078 C.ar       1           0.1636
      4 C3          6.2232    -4.4904    84.1968 C.ar       1          -0.1771
      5 C4          5.1847    -5.0073    83.4874 C.ar       1          -0.0291
      6 C5          4.3492    -5.9745    84.0744 C.ar       1           0.0985
      7 N1          3.3218    -6.4991    83.3987 N.ar       1          -0.4353
      8 C6          2.5395    -7.4010    83.9394 C.ar       1           0.1196
      9 C7          2.7371    -7.8579    85.2407 C.ar       1          -0.1274
     10 C8          3.7686    -7.3638    85.9871 C.ar       1          -0.1064
     11 C9          4.0031    -7.8424    87.3967 C.3        1           0.1374
     12 O2          3.5610    -9.1956    87.5201 O.3        1          -0.5438
     13 C10         3.2217    -6.9596    88.3717 C.3        1          -0.0465
     14 N2          3.7943    -7.0911    89.7182 N.4        1          -0.3852
     15 H1          4.0403    -8.0553    89.8852 H          1           0.4318
     16 C11         2.8049    -6.6606    90.7133 C.3        1          -0.0019
     17 C12         3.3666    -6.8717    92.1210 C.3        1          -0.1709
     18 C13         4.6473    -6.0477    92.2826 C.3        1           0.0140
     19 C14         5.6443    -6.4531    91.1930 C.3        1          -0.1717
     20 C15         4.9972    -6.2561    89.8204 C.3        1          -0.0107
     21 N3          5.2333    -6.3048    93.6049 N.4        1          -0.5087
     22 H2          5.1501    -7.2861    93.8245 H          1           0.4378
     23 H3          6.2076    -6.0430    93.5977 H          1           0.4388
     24 C16         4.5214    -5.5143    94.6179 C.3        1          -0.0044
     25 C17         5.1316    -5.7820    95.9952 C.3        1           0.0226
     26 O3          5.0140    -7.1718    96.3063 O.3        1          -0.3283
     27 C18         5.9751    -7.7092    97.1027 C.ar       1           0.1594
     28 C19         6.1736    -7.2136    98.3835 C.ar       1          -0.2040
     29 C20         7.1507    -7.7619    99.1912 C.ar       1          -0.0417
     30 C21         7.9309    -8.8039    98.7244 C.ar       1          -0.1344
     31 C22         7.7354    -9.2992    97.4487 C.ar       1          -0.0316
     32 C23         6.7555    -8.7579    96.6388 C.ar       1          -0.2091
     33 C24         6.5388    -9.3025    95.2505 C.3        1           0.5184
     34 F1          5.5051    -8.5946    94.6280 F          1          -0.1674
     35 F2          7.7147    -9.1618    94.5057 F          1          -0.1853
     36 F3          6.1956   -10.6564    95.3289 F          1          -0.1750
     37 C25         4.6069    -6.3952    85.4030 C.ar       1          -0.0437
     38 C26         5.6900    -5.8470    86.1075 C.ar       1          -0.1873
     39 H4          9.1088    -3.0460    86.1662 H          1           0.0659
     40 H5          8.7414    -3.8315    84.6118 H          1           0.0645
     41 H6          7.6778    -2.5464    85.2328 H          1           0.1103
     42 H7          6.8612    -3.7478    83.7410 H          1           0.1477
     43 H8          5.0017    -4.6758    82.4760 H          1           0.1521
     44 H9          1.7196    -7.8004    83.3609 H          1           0.1713
     45 H10         2.0751    -8.6018    85.6588 H          1           0.1417
     46 H11         5.0669    -7.7853    87.6275 H          1           0.1357
     47 H12         4.0146    -9.8130    86.9299 H          1           0.3927
     48 H13         3.2839    -5.9199    88.0506 H          1           0.1501
     49 H14         2.1778    -7.2727    88.3889 H          1           0.1469
     50 H15         2.5793    -5.6042    90.5672 H          1           0.1438
     51 H16         1.8930    -7.2456    90.5949 H          1           0.1530
     52 H17         2.6312    -6.5498    92.8583 H          1           0.1397
     53 H18         3.5923    -7.9279    92.2682 H          1           0.1150
     54 H19         4.4132    -4.9875    92.1861 H          1           0.1602
     55 H20         6.5369    -5.8320    91.2672 H          1           0.1386
     56 H21         5.9173    -7.5006    91.3209 H          1           0.1172
     57 H22         5.7048    -6.5424    89.0422 H          1           0.1524
     58 H23         4.7236    -5.2087    89.6938 H          1           0.1456
     59 H24         4.6111    -4.4542    94.3806 H          1           0.1474
     60 H25         3.4687    -5.7969    94.6257 H          1           0.1602
     61 H26         6.1842    -5.4992    95.9874 H          1           0.1208
     62 H27         4.6034    -5.1955    96.7469 H          1           0.0956
     63 H28         5.5648    -6.3996    98.7484 H          1           0.1403
     64 H29         7.3057    -7.3762   100.1880 H          1           0.1456
     65 H30         8.6944    -9.2312    99.3575 H          1           0.1485
     66 H31         8.3462   -10.1128    97.0863 H          1           0.1542
     67 H32         5.8969    -6.1642    87.1189 H          1           0.1251
@<TRIPOS>BOND
     1    1    2 1
     2    1   39 1
     3    1   40 1
     4    1   41 1
     5    2    3 1
     6    3   38 ar
     7    3    4 ar
     8    4    5 ar
     9    4   42 1
    10    5    6 ar
    11    5   43 1
    12    6   37 ar
    13    6    7 ar
    14    7    8 ar
    15    8    9 ar
    16    8   44 1
    17    9   10 ar
    18    9   45 1
    19   10   11 1
    20   10   37 ar
    21   11   12 1
    22   11   13 1
    23   11   46 1
    24   12   47 1
    25   13   14 1
    26   13   48 1
    27   13   49 1
    28   14   15 1
    29   14   20 1
    30   14   16 1
    31   16   17 1
    32   16   50 1
    33   16   51 1
    34   17   18 1
    35   17   52 1
    36   17   53 1
    37   18   19 1
    38   18   21 1
    39   18   54 1
    40   19   20 1
    41   19   55 1
    42   19   56 1
    43   20   57 1
    44   20   58 1
    45   21   22 1
    46   21   23 1
    47   21   24 1
    48   24   25 1
    49   24   59 1
    50   24   60 1
    51   25   26 1
    52   25   61 1
    53   25   62 1
    54   26   27 1
    55   27   32 ar
    56   27   28 ar
    57   28   29 ar
    58   28   63 1
    59   29   30 ar
    60   29   64 1
    61   30   31 ar
    62   30   65 1
    63   31   32 ar
    64   31   66 1
    65   32   33 1
    66   33   34 1
    67   33   35 1
    68   33   36 1
    69   37   38 ar
    70   38   67 1
##########                 Name:              T540747
##########          Protonation:                   96
##########               SMILES:   c(c(cc1[C@@H]2C[C@H]2C(=O)NCCCCC[NH+]3CC[C@H](C3)NC(=O)Nc4ccc(cc4Cl)Cl)Cl)Cl
##########            Long Name:   rophenyl)carbamoylamino]pyrrolidin-1-ium-1-yl]pentyl]cyclopropanecarboxamide
##########          FlexRecCode: 1
##########               Number:                   55
##########   Ligand Source File: /raidb/db2/rgc/tcams/tcams-0002050.db2.gz
##########           GlobalRank: 131
##########                 Rank:                    1
##########               Setnum:                   36
##########             Matchnum:                 3469
##########                Cloud:                    1
##########        Electrostatic:           -30.263365
##########        Van der Waals:           -37.971718
##########  Ligand Polar Desolv:             5.522870
########## Ligand Apolar Desolv:            -4.709382
##########      Internal Energy:             0.000000
##########      Receptor Energy: 0.0
########## Receptor Desolvation:             0.000000
########## Receptor Hydrophobic:             0.000000
##########         Total Energy: -67.42
##########        Ligand Charge:             1.000000
##########            Arbitrary:    +999.9990
##########     heavy atom count:   36
##########           pose count:    1
##########        Ligand Energy:             0.000000
# num electro vdwattr vdwrepu polsolv apolsol rdesolv rhydroe totalscore fullpol fullapo
#   1    0.34   -4.37    1.23   -0.26   -0.59    0.00    0.00      -3.64   -0.43   -0.99
#   2    0.27   -1.59    0.28   -0.23   -0.14    0.00    0.00      -1.40   -0.47   -0.30
#   3    0.43   -1.30    0.13   -0.24   -0.17    0.00    0.00      -1.15   -0.63   -0.46
#   4    0.69   -1.22    0.15   -0.31   -0.13    0.00    0.00      -0.82   -0.97   -0.41
#   5   -1.88   -1.24    0.12    0.67   -0.25    0.00    0.00      -2.58    1.86   -0.69
#   6   11.02   -1.13    0.09   -3.33    0.60    0.00    0.00       7.25   -9.19    1.66
#   7  -11.88   -0.84    0.05    3.12   -0.62    0.00    0.00     -10.18   10.52   -2.10
#   8    3.75   -1.08    0.31   -1.75    0.08    0.00    0.00       1.31   -6.71    0.32
#   9   19.90   -0.95    0.08   -4.73    0.66    0.00    0.00      14.96  -15.36    2.14
#  10   -4.07   -0.54    0.05    0.79   -0.08    0.00    0.00      -3.86    3.14   -0.33
#  11    5.93   -1.28    0.36   -1.71   -0.11    0.00    0.00       3.19   -4.28   -0.28
#  12    0.35   -1.02    0.18    0.12   -0.17    0.00    0.00      -0.54    0.31   -0.45
#  13    7.62   -0.55    0.02   -3.14    0.11    0.00    0.00       4.05  -12.39    0.45
#  14   -6.65   -0.01    0.00    1.67    0.05    0.00    0.00      -4.94   17.21    0.56
#  15    0.22   -0.65    0.06    0.09   -0.10    0.00    0.00      -0.38    0.27   -0.32
#  16    2.70   -0.80    0.11   -1.50   -0.07    0.00    0.00       0.44   -4.31   -0.21
#  17    0.55   -0.55    0.07   -0.78   -0.06    0.00    0.00      -0.76   -2.90   -0.22
#  18    0.31   -0.79    0.16   -0.75   -0.07    0.00    0.00      -1.15   -2.39   -0.22
#  19   -0.21   -0.38    0.03    0.30   -0.09    0.00    0.00      -0.35    1.44   -0.42
#  20    0.98   -0.25    0.00   -1.01    0.26    0.00    0.00      -0.02   -8.94    2.32
#  21   -0.82   -0.24    0.00    0.41   -0.06    0.00    0.00      -0.71    4.36   -0.64
#  22    0.87   -0.34    0.01   -0.30    0.06    0.00    0.00       0.30   -1.84    0.38
#  23    0.36   -0.14    0.00   -0.14   -0.03    0.00    0.00       0.04   -1.66   -0.37
#  24    0.95   -0.17    0.00   -0.14   -0.05    0.00    0.00       0.59   -1.27   -0.41
#  25    0.25   -0.39    0.03   -0.19   -0.07    0.00    0.00      -0.36   -0.94   -0.37
#  26    0.11   -0.99    0.24   -0.05   -0.10    0.00    0.00      -0.80   -0.20   -0.40
#  27    0.37   -1.31    0.40   -0.19   -0.11    0.00    0.00      -0.84   -0.70   -0.42
#  28    0.12   -1.66    0.70   -0.08   -0.09    0.00    0.00      -1.01   -0.26   -0.30
#  29    0.68   -2.95    1.11   -0.09   -0.34    0.00    0.00      -1.60   -0.26   -0.95
#  30    0.10   -1.79    0.79   -0.10   -0.10    0.00    0.00      -1.10   -0.28   -0.30
#  31    0.17   -4.08    1.80   -0.10   -0.44    0.00    0.00      -2.64   -0.21   -0.95
#  32    0.18   -2.10    1.29   -0.18   -0.14    0.00    0.00      -0.95   -0.57   -0.46
#  33    0.16   -1.31    0.48   -0.17   -0.12    0.00    0.00      -0.96   -0.68   -0.46
#  34    0.32   -0.42    0.02    0.11   -0.10    0.00    0.00      -0.07    0.49   -0.45
#  35    0.72   -1.64    0.28   -0.31   -0.14    0.00    0.00      -1.09   -0.65   -0.29
#  36    0.88   -4.53    1.02   -0.21   -0.55    0.00    0.00      -3.38   -0.37   -0.94
#  37    0.78   -2.29    1.50   -0.29   -0.21    0.00    0.00      -0.51   -0.64   -0.45
#  38   -0.81   -0.26    0.03    0.32   -0.07    0.00    0.00      -0.79    1.31   -0.28
#  39   -0.93   -0.20    0.02    0.25   -0.03    0.00    0.00      -0.89    1.43   -0.19
#  40   -8.30   -0.02    0.00    2.03    0.15    0.00    0.00      -6.14    7.09    0.52
#  41  -13.47   -0.02    0.00    2.95    0.15    0.00    0.00     -10.39   11.19    0.58
#  42   -3.34   -0.13    0.01    0.25   -0.03    0.00    0.00      -3.24    2.12   -0.26
#  43   -4.46   -0.49    0.13    1.07   -0.12    0.00    0.00      -3.87    2.52   -0.28
#  44   -5.51   -0.75    0.53    0.39   -0.10    0.00    0.00      -5.44    1.08   -0.28
#  45   -3.74   -0.42    0.10    1.67   -0.07    0.00    0.00      -2.45    5.29   -0.22
#  46   -3.20   -0.60    0.49    1.73   -0.10    0.00    0.00      -1.68    5.07   -0.28
#  47   -3.83   -0.28    0.05    1.49   -0.08    0.00    0.00      -2.63    5.51   -0.28
#  48   -3.27   -0.20    0.01    1.12   -0.06    0.00    0.00      -2.40    5.05   -0.28
#  49   -1.07   -0.22    0.02    0.87   -0.06    0.00    0.00      -0.47    3.25   -0.23
#  50   -2.51   -0.56    0.29    1.23   -0.11    0.00    0.00      -1.65    3.25   -0.28
#  51   -0.77   -0.24    0.09    0.27   -0.05    0.00    0.00      -0.70    1.55   -0.28
#  52   -0.36   -0.08    0.00    0.11   -0.02    0.00    0.00      -0.34    1.62   -0.28
#  53   -0.11   -0.26    0.05    0.52   -0.08    0.00    0.00       0.12    1.91   -0.28
#  54   -0.22   -0.61    0.52    0.61   -0.10    0.00    0.00       0.20    1.80   -0.28
#  55   -0.10   -0.10    0.01    0.04   -0.03    0.00    0.00      -0.19    0.35   -0.28
#  56   -0.15   -0.16    0.03    0.06   -0.04    0.00    0.00      -0.27    0.41   -0.28
#  57   -0.39    0.00    0.00    0.30    0.02    0.00    0.00      -0.07    7.07    0.57
#  58   -0.16   -0.02    0.00    0.07   -0.01    0.00    0.00      -0.12    2.21   -0.28
#  59   -1.01   -0.05    0.00    0.05   -0.01    0.00    0.00      -1.02    1.00   -0.28
#  60   -0.81   -0.03    0.00    0.07   -0.01    0.00    0.00      -0.79    1.83   -0.22
#  61   -0.37   -0.25    0.11    0.11   -0.05    0.00    0.00      -0.46    0.58   -0.27
#  62   -2.15   -0.21    0.03    0.36   -0.04    0.00    0.00      -2.02    1.89   -0.21
#  63   -0.23   -0.47    0.22    0.35   -0.09    0.00    0.00      -0.22    1.14   -0.28
#  64   -0.19   -0.16    0.02    0.22   -0.04    0.00    0.00      -0.15    1.43   -0.28
#  65   -1.05   -0.15    0.02    0.77   -0.04    0.00    0.00      -0.45    6.06   -0.28
#  66   -2.39   -0.14    0.00    0.86   -0.04    0.00    0.00      -1.71    6.13   -0.26
#  67   -1.90   -0.65    0.70    0.43   -0.12    0.00    0.00      -1.54    1.04   -0.28

@<TRIPOS>MOLECULE
          T540747        96
   67    70     0     0     0



@<TRIPOS>ATOM
      1 Cl1         8.5000   -12.8922    97.7771 Cl         1          -0.0458
      2 C1          7.9856   -11.3139    97.2690 C.ar       1          -0.0391
      3 C2          7.4831   -11.1287    95.9929 C.ar       1          -0.0804
      4 C3          7.0729    -9.8742    95.5857 C.ar       1          -0.1064
      5 C4          7.1646    -8.7979    96.4578 C.ar       1           0.1726
      6 N1          6.7490    -7.5250    96.0473 N.am       1          -0.6721
      7 C5          5.7601    -7.3989    95.1404 C.2        1           0.7135
      8 O1          5.2286    -8.3903    94.6786 O.2        1          -0.5552
      9 N2          5.3601    -6.1739    94.7453 N.am       1          -0.7336
     10 C6          4.2852    -6.0369    93.7594 C.3        1           0.1515
     11 C7          3.9755    -4.5653    93.5131 C.3        1          -0.1586
     12 C8          2.4983    -4.4002    93.8867 C.3        1          -0.0133
     13 N3          1.9335    -5.7630    93.7252 N.4        1          -0.3870
     14 H1          1.7917    -5.9769    92.7493 H          1           0.4306
     15 C9          0.6764    -5.8963    94.4733 C.3        1          -0.0094
     16 C10         0.1196    -7.3092    94.2876 C.3        1          -0.1483
     17 C11        -0.1419    -7.5630    92.8016 C.3        1          -0.1150
     18 C12        -0.6988    -8.9761    92.6158 C.3        1          -0.1328
     19 C13        -0.9604    -9.2299    91.1299 C.3        1           0.1175
     20 N4          0.2934    -9.0970    90.3837 N.am       1          -0.7314
     21 C14         0.6565    -7.8991    89.8840 C.2        1           0.5460
     22 O2         -0.0548    -6.9311    90.0519 O.2        1          -0.5317
     23 C15         1.9463    -7.7624    89.1167 C.3        1          -0.1825
     24 C16         3.2241    -7.5158    89.9211 C.3        1          -0.1409
     25 C17         2.6114    -6.3847    89.0927 C.3        1          -0.0793
     26 C18         3.3280    -5.9798    87.8303 C.ar       1          -0.0425
     27 C19         4.6786    -5.6872    87.8661 C.ar       1          -0.1009
     28 C20         5.3366    -5.3156    86.7077 C.ar       1          -0.0281
     29 Cl2         7.0327    -4.9484    86.7520 Cl         1          -0.0429
     30 C21         4.6417    -5.2368    85.5125 C.ar       1          -0.0330
     31 Cl3         5.4662    -4.7711    84.0575 Cl         1          -0.0420
     32 C22         3.2905    -5.5300    85.4785 C.ar       1          -0.0934
     33 C23         2.6355    -5.9067    86.6362 C.ar       1          -0.0909
     34 C24         2.9859    -6.6291    94.3033 C.3        1          -0.0193
     35 C25         7.6691    -8.9859    97.7386 C.ar       1          -0.0576
     36 Cl4         7.7850    -7.6431    98.8327 Cl         1          -0.0490
     37 C26         8.0736   -10.2445    98.1425 C.ar       1          -0.0774
     38 H2          7.4118   -11.9661    95.3146 H          1           0.1474
     39 H3          6.6815    -9.7307    94.5894 H          1           0.1639
     40 H4          7.1729    -6.7341    96.4157 H          1           0.4137
     41 H5          5.7841    -5.3831    95.1136 H          1           0.4073
     42 H6          4.5636    -6.5261    92.8260 H          1           0.1315
     43 H7          4.5996    -3.9354    94.1471 H          1           0.1029
     44 H8          4.1311    -4.3158    92.4634 H          1           0.1207
     45 H9          2.4001    -4.0659    94.9195 H          1           0.1366
     46 H10         2.0084    -3.7007    93.2094 H          1           0.1374
     47 H11         0.8628    -5.7156    95.5320 H          1           0.1328
     48 H12        -0.0461    -5.1693    94.1022 H          1           0.1312
     49 H13         0.8422    -8.0362    94.6586 H          1           0.0887
     50 H14        -0.8131    -7.4082    94.8428 H          1           0.0894
     51 H15        -0.8646    -6.8361    92.4305 H          1           0.0791
     52 H16         0.7908    -7.4642    92.2464 H          1           0.0784
     53 H17         0.0238    -9.7029    92.9868 H          1           0.0749
     54 H18        -1.6315    -9.0749    93.1711 H          1           0.0752
     55 H19        -1.3569   -10.2365    90.9976 H          1           0.0699
     56 H20        -1.6828    -8.5030    90.7588 H          1           0.0697
     57 H21         0.8621    -9.8711    90.2493 H          1           0.4032
     58 H22         2.0266    -8.3758    88.2192 H          1           0.1285
     59 H23         3.1320    -7.4524    91.0053 H          1           0.1094
     60 H24         4.1455    -7.9670    89.5529 H          1           0.1127
     61 H25         2.1162    -5.5772    89.6320 H          1           0.1346
     62 H26         5.2200    -5.7485    88.7987 H          1           0.1434
     63 H27         2.7478    -5.4683    84.5467 H          1           0.1468
     64 H28         1.5814    -6.1401    86.6085 H          1           0.1418
     65 H29         2.8632    -7.6579    93.9650 H          1           0.1464
     66 H30         2.9682    -6.5776    95.3920 H          1           0.1380
     67 H31         8.4623   -10.3924    99.1392 H          1           0.1526
@<TRIPOS>BOND
     1    1    2 1
     2    2   37 ar
     3    2    3 ar
     4    3    4 ar
     5    3   38 1
     6    4    5 ar
     7    4   39 1
     8    5    6 1
     9    5   35 ar
    10    6    7 am
    11    6   40 1
    12    7    8 2
    13    7    9 am
    14    9   10 1
    15    9   41 1
    16   10   34 1
    17   10   11 1
    18   10   42 1
    19   11   12 1
    20   11   43 1
    21   11   44 1
    22   12   13 1
    23   12   45 1
    24   12   46 1
    25   13   14 1
    26   13   15 1
    27   13   34 1
    28   15   16 1
    29   15   47 1
    30   15   48 1
    31   16   17 1
    32   16   49 1
    33   16   50 1
    34   17   18 1
    35   17   51 1
    36   17   52 1
    37   18   19 1
    38   18   53 1
    39   18   54 1
    40   19   20 1
    41   19   55 1
    42   19   56 1
    43   20   21 am
    44   20   57 1
    45   21   22 2
    46   21   23 1
    47   23   25 1
    48   23   24 1
    49   23   58 1
    50   24   25 1
    51   24   59 1
    52   24   60 1
    53   25   26 1
    54   25   61 1
    55   26   33 ar
    56   26   27 ar
    57   27   28 ar
    58   27   62 1
    59   28   29 1
    60   28   30 ar
    61   30   31 1
    62   30   32 ar
    63   32   33 ar
    64   32   63 1
    65   33   64 1
    66   34   65 1
    67   34   66 1
    68   35   36 1
    69   35   37 ar
    70   37   67 1
##########                 Name:              T527826
##########          Protonation:                   28
##########               SMILES:   [H]/N=C\1/N(C(NC(=[NH2+])N1)(C)C)OCCCCON\2C(NC(=[NH2+])N/C2=N\[H])(C)C
##########            Long Name:   nan-1-yl)oxy]butoxy]-6-imino-4,4-dimethyl-1,3,5-triazinan-2-ylidene]ammonium
##########          FlexRecCode: 1
##########               Number:                   52
##########   Ligand Source File: /raidb/db2/rgc/tcams/tcams-0000319.db2.gz
##########           GlobalRank: 132
##########                 Rank:                    1
##########               Setnum:                   50
##########             Matchnum:                 2696
##########                Cloud:                    1
##########        Electrostatic:           -64.678085
##########        Van der Waals:           -13.480784
##########  Ligand Polar Desolv:            11.950989
########## Ligand Apolar Desolv:            -1.191462
##########      Internal Energy:             0.000000
##########      Receptor Energy: 0.0
########## Receptor Desolvation:             0.000000
########## Receptor Hydrophobic:             0.000000
##########         Total Energy: -67.4
##########        Ligand Charge:             2.000000
##########            Arbitrary:    +999.9990
##########     heavy atom count:   26
##########           pose count:    1
##########        Ligand Energy:             0.000000
# num electro vdwattr vdwrepu polsolv apolsol rdesolv rhydroe totalscore fullpol fullapo
#   1    0.83   -0.13    0.00   -0.36   -0.01    0.00    0.00       0.32   -4.28   -0.16
#   2   -4.98   -0.18    0.00    1.24   -0.04    0.00    0.00      -3.95   11.38   -0.37
#   3    1.48   -0.12    0.00   -0.38   -0.01    0.00    0.00       0.96   -4.73   -0.18
#   4   12.76   -0.45    0.02   -3.77    0.26    0.00    0.00       8.82  -22.23    1.52
#   5  -19.10   -1.07    0.17    6.65   -1.22    0.00    0.00     -14.58   24.79   -4.54
#   6   17.04   -0.91    0.07   -7.46    0.28    0.00    0.00       9.02  -23.54    0.89
#   7   -8.24   -0.01    0.00    1.67    0.06    0.00    0.00      -6.52   17.92    0.60
#   8  -13.73   -0.02    0.00    5.29    0.18    0.00    0.00      -8.28   17.39    0.60
#   9   27.31   -3.95    3.49   -7.29    0.42    0.00    0.00      19.97  -20.12    1.15
#  10  -15.60   -2.37    1.29    4.79   -1.44    0.00    0.00     -13.33   14.53   -4.38
#  11   11.64   -5.29    7.85   -6.04    0.56    0.00    0.00       8.72  -15.21    1.42
#  12    8.72   -0.64    0.05   -2.52    0.19    0.00    0.00       5.78  -11.76    0.87
#  13    1.45   -0.40    0.02   -0.53    0.08    0.00    0.00       0.62   -2.79    0.43
#  14   -0.12   -0.23    0.01    0.11   -0.02    0.00    0.00      -0.25    0.74   -0.13
#  15    0.58   -0.22    0.00   -0.25   -0.03    0.00    0.00       0.09   -1.91   -0.24
#  16    1.33   -0.42    0.04   -0.38   -0.05    0.00    0.00       0.52   -1.91   -0.24
#  17   -0.30   -0.43    0.02    0.19   -0.03    0.00    0.00      -0.56    0.74   -0.13
#  18    1.24   -0.62    0.03   -0.81    0.12    0.00    0.00      -0.04   -2.79    0.43
#  19    6.37   -0.80    0.07   -3.08    0.23    0.00    0.00       2.78  -11.77    0.87
#  20   -5.61   -0.83    0.17    2.96   -0.89    0.00    0.00      -4.21   14.54   -4.38
#  21   -0.93   -1.87    1.44   -3.35    0.31    0.00    0.00      -4.40  -15.22    1.41
#  22   15.34   -0.68    0.03   -4.57    0.26    0.00    0.00      10.39  -20.11    1.15
#  23  -19.50   -0.97    0.06    8.18   -1.49    0.00    0.00     -13.73   24.78   -4.52
#  24   20.15   -1.52    0.24  -10.15    0.38    0.00    0.00       9.10  -23.52    0.89
#  25  -13.72   -0.02    0.00    5.68    0.20    0.00    0.00      -7.86   17.38    0.60
#  26  -11.79   -0.05    0.00    6.76    0.23    0.00    0.00      -4.85   17.91    0.60
#  27   17.54   -1.27    0.10   -9.09    0.63    0.00    0.00       7.91  -22.24    1.53
#  28   -7.95   -0.73    0.04    4.82   -0.16    0.00    0.00      -3.98   11.38   -0.38
#  29    5.35   -1.42    0.55   -2.32   -0.09    0.00    0.00       2.07   -4.73   -0.18
#  30    1.74   -1.72    0.75   -2.08   -0.08    0.00    0.00      -1.39   -4.27   -0.16
#  31   -0.35   -0.03    0.00    0.05   -0.01    0.00    0.00      -0.33    1.64   -0.28
#  32   -0.27   -0.03    0.00    0.12   -0.01    0.00    0.00      -0.18    3.64   -0.28
#  33   -0.38   -0.06    0.00    0.11   -0.02    0.00    0.00      -0.35    1.85   -0.26
#  34   -1.13   -0.05    0.00    0.16   -0.01    0.00    0.00      -1.03    3.62   -0.28
#  35   -0.27   -0.03    0.00    0.05   -0.01    0.00    0.00      -0.26    1.48   -0.26
#  36   -0.55   -0.02    0.00    0.05   -0.01    0.00    0.00      -0.54    1.60   -0.27
#  37   -6.96    0.00    0.00    1.01    0.04    0.00    0.00      -5.92   15.93    0.58
#  38  -25.82   -0.18    0.03    6.83    0.28    0.00    0.00     -18.86   14.62    0.59
#  39  -15.49   -0.46    0.52    4.11    0.32    0.00    0.00     -11.00    7.83    0.60
#  40   -0.22   -0.12    0.01    0.24   -0.03    0.00    0.00      -0.12    2.00   -0.27
#  41   -0.29   -0.03    0.00    0.02   -0.01    0.00    0.00      -0.32    0.54   -0.27
#  42   -0.16   -0.05    0.00    0.04   -0.01    0.00    0.00      -0.19    0.73   -0.28
#  43   -0.33   -0.07    0.00    0.14   -0.02    0.00    0.00      -0.28    2.17   -0.28
#  44   -1.49   -0.12    0.01    0.29   -0.04    0.00    0.00      -1.36    2.17   -0.28
#  45   -0.73   -0.29    0.15    0.13   -0.05    0.00    0.00      -0.79    0.73   -0.28
#  46   -1.79   -0.15    0.01    0.09   -0.05    0.00    0.00      -1.89    0.55   -0.27
#  47   -0.90   -0.17    0.02    0.32   -0.04    0.00    0.00      -0.77    2.00   -0.27
#  48   -0.79   -0.02    0.00    1.17    0.09    0.00    0.00       0.46    7.84    0.60
#  49  -12.87   -0.01    0.00    1.92    0.08    0.00    0.00     -10.89   14.62    0.59
#  50  -12.44   -0.04    0.00    5.45    0.20    0.00    0.00      -6.82   15.90    0.58
#  51   -2.99   -0.59    0.15    0.84   -0.14    0.00    0.00      -2.73    1.60   -0.27
#  52   -2.84   -0.32    0.05    1.18   -0.09    0.00    0.00      -2.03    3.61   -0.28
#  53   -2.47   -0.98    2.69    0.61   -0.11    0.00    0.00      -0.25    1.50   -0.26
#  54   -1.21   -0.82    0.85    0.74   -0.13    0.00    0.00      -0.57    1.64   -0.28
#  55   -0.70   -0.82    0.63    1.78   -0.14    0.00    0.00       0.75    3.63   -0.28
#  56   -0.50   -0.46    0.16    0.61   -0.09    0.00    0.00      -0.27    1.86   -0.26

@<TRIPOS>MOLECULE
          T527826        28
   56    57     0     0     0



@<TRIPOS>ATOM
      1 C1          5.3052    -7.9681    87.6855 C.3        1          -0.1641
      2 C2          5.7418    -7.6340    89.1134 C.3        1           0.4169
      3 C3          5.6038    -8.8681    90.0071 C.3        1          -0.1812
      4 N1          7.1356    -7.1574    89.1183 N.pl3      1          -0.7236
      5 C4          7.3788    -5.8872    88.6161 C.cat      1           0.7671
      6 N2          8.3679    -5.6457    87.8037 N.pl3      1          -0.7121
      7 H1          8.9599    -6.3648    87.5331 H          1           0.4518
      8 H2          8.5124    -4.7467    87.4692 H          1           0.4495
      9 N3          6.5036    -4.8842    89.0305 N.pl3      1          -0.6968
     10 C5          5.1655    -5.2579    89.1454 C.2        1           0.6105
     11 N4          4.1955    -4.4592    88.8019 N.2        1          -0.6556
     12 N5          4.9260    -6.5293    89.6467 N.pl3      1          -0.4995
     13 O1          3.9354    -6.7562    90.6327 O.3        1          -0.0927
     14 C6          2.6425    -7.0515    90.1005 C.3        1           0.0193
     15 C7          1.6574    -7.2773    91.2492 C.3        1          -0.1082
     16 C8          1.5786    -6.0142    92.1092 C.3        1          -0.1082
     17 C9          0.5935    -6.2401    93.2578 C.3        1           0.0191
     18 O2          1.0401    -7.3353    94.0598 O.3        1          -0.0927
     19 N6          2.3185    -7.1427    94.6374 N.pl3      1          -0.4995
     20 C10         3.4737    -7.5368    93.9780 C.2        1           0.6106
     21 N7          3.5696    -8.6948    93.3896 N.2        1          -0.6557
     22 N8          4.5259    -6.6221    93.9809 N.pl3      1          -0.6967
     23 C11         4.7029    -5.9068    95.1645 C.cat      1           0.7671
     24 N9          5.8871    -5.6219    95.6263 N.pl3      1          -0.7123
     25 H3          6.6779    -5.9090    95.1437 H          1           0.4494
     26 H4          5.9780    -5.1225    96.4529 H          1           0.4517
     27 N10         3.5455    -5.5155    95.8218 N.pl3      1          -0.7246
     28 C12         2.4732    -6.5103    95.9590 C.3        1           0.4174
     29 C13         1.1692    -5.8232    96.3690 C.3        1          -0.1811
     30 C14         2.8652    -7.5597    97.0011 C.3        1          -0.1639
     31 H5          5.9148    -8.7859    87.3012 H          1           0.0886
     32 H6          4.2567    -8.2656    87.6864 H          1           0.0947
     33 H7          5.4334    -7.0906    87.0517 H          1           0.0966
     34 H8          5.9170    -8.6193    91.0211 H          1           0.0980
     35 H9          4.5638    -9.1945    90.0178 H          1           0.0645
     36 H10         6.2322    -9.6697    89.6191 H          1           0.0968
     37 H11         7.8557    -7.7104    89.4597 H          1           0.4497
     38 H12         6.8065    -3.9839    89.2267 H          1           0.4524
     39 H13         4.3947    -3.5758    88.4545 H          1           0.3695
     40 H14         2.3019    -6.2161    89.4887 H          1           0.0638
     41 H15         2.6986    -7.9514    89.4878 H          1           0.0818
     42 H16         0.6712    -7.5025    90.8431 H          1           0.0824
     43 H17         1.9978    -8.1128    91.8608 H          1           0.0798
     44 H18         2.5648    -5.7890    92.5151 H          1           0.0798
     45 H19         1.2382    -5.1788    91.4975 H          1           0.0825
     46 H20         0.5374    -5.3403    93.8706 H          1           0.0820
     47 H21        -0.3926    -6.4653    92.8519 H          1           0.0637
     48 H22         4.3909    -8.9421    92.9364 H          1           0.3695
     49 H23         5.0985    -6.4920    93.2089 H          1           0.4523
     50 H24         3.4466    -4.6179    96.1762 H          1           0.4496
     51 H25         1.2948    -5.3592    97.3472 H          1           0.0970
     52 H26         0.9145    -5.0592    95.6345 H          1           0.0983
     53 H27         0.3689    -6.5617    96.4174 H          1           0.0645
     54 H28         2.9769    -7.0814    97.9741 H          1           0.0887
     55 H29         2.0888    -8.3226    97.0584 H          1           0.0948
     56 H30         3.8091    -8.0228    96.7133 H          1           0.0967
@<TRIPOS>BOND
     1    1    2 1
     2    1   31 1
     3    1   32 1
     4    1   33 1
     5    2   12 1
     6    2    3 1
     7    2    4 1
     8    3   34 1
     9    3   35 1
    10    3   36 1
    11    4    5 1
    12    4   37 1
    13    5    6 2
    14    5    9 1
    15    6    7 1
    16    6    8 1
    17    9   10 1
    18    9   38 1
    19   10   11 2
    20   10   12 1
    21   11   39 1
    22   12   13 1
    23   13   14 1
    24   14   15 1
    25   14   40 1
    26   14   41 1
    27   15   16 1
    28   15   42 1
    29   15   43 1
    30   16   17 1
    31   16   44 1
    32   16   45 1
    33   17   18 1
    34   17   46 1
    35   17   47 1
    36   18   19 1
    37   19   28 1
    38   19   20 1
    39   20   21 2
    40   20   22 1
    41   21   48 1
    42   22   23 1
    43   22   49 1
    44   23   24 2
    45   23   27 1
    46   24   25 1
    47   24   26 1
    48   27   28 1
    49   27   50 1
    50   28   29 1
    51   28   30 1
    52   29   51 1
    53   29   52 1
    54   29   53 1
    55   30   54 1
    56   30   55 1
    57   30   56 1
##########                 Name:              T541363
##########          Protonation:                   14
##########               SMILES:   /N=C/1\NC(=[NH2+])NC(N1OCc2cc3ccccc3cc2CON4/C(=N/[H])/[NH+]=C(NC4(C)C)N)(C)C
##########            Long Name:   -2-naphthyl]methoxy]-6-imino-4,4-dimethyl-1,3,5-triazinan-2-ylidene]ammonium
##########          FlexRecCode: 1
##########               Number:                  134
##########   Ligand Source File: /raidb/db2/rgc/tcams/tcams-0002100.db2.gz
##########           GlobalRank: 133
##########                 Rank:                    1
##########               Setnum:                   50
##########             Matchnum:                 1192
##########                Cloud:                    1
##########        Electrostatic:           -67.586159
##########        Van der Waals:           -13.807243
##########  Ligand Polar Desolv:            15.043392
########## Ligand Apolar Desolv:            -1.024259
##########      Internal Energy:             0.000000
##########      Receptor Energy: 0.0
########## Receptor Desolvation:             0.000000
########## Receptor Hydrophobic:             0.000000
##########         Total Energy: -67.37
##########        Ligand Charge:             2.000000
##########            Arbitrary:    +999.9990
##########     heavy atom count:   34
##########           pose count:    1
##########        Ligand Energy:             0.000000
# num electro vdwattr vdwrepu polsolv apolsol rdesolv rhydroe totalscore fullpol fullapo
#   1    2.23   -0.36    0.02   -1.03   -0.04    0.00    0.00       0.83   -5.21   -0.18
#   2   -4.87   -0.36    0.03    2.24   -0.07    0.00    0.00      -3.04   12.33   -0.38
#   3    3.81   -0.47    0.04   -1.00   -0.04    0.00    0.00       2.35   -4.51   -0.17
#   4    7.04   -0.86    0.16   -5.05    0.33    0.00    0.00       1.62  -23.43    1.52
#   5   -8.84   -0.87    0.12    6.83   -1.17    0.00    0.00      -3.94   26.51   -4.55
#   6   15.12   -0.95    0.04   -9.81    0.35    0.00    0.00       4.75  -25.42    0.90
#   7  -10.24   -0.01    0.00    3.98    0.13    0.00    0.00      -6.15   18.29    0.60
#   8  -11.91   -0.02    0.00    4.44    0.15    0.00    0.00      -7.34   18.05    0.60
#   9    4.71   -1.05    0.19   -6.77    0.35    0.00    0.00      -2.57  -21.52    1.10
#  10   -2.01   -0.67    0.08    3.62   -0.96    0.00    0.00       0.06   16.63   -4.41
#  11    1.13   -0.43    0.01   -3.56    0.28    0.00    0.00      -2.57  -18.02    1.42
#  12    1.51   -0.73    0.13   -2.25    0.15    0.00    0.00      -1.19  -13.10    0.87
#  13    0.00   -0.76    0.28   -0.48    0.06    0.00    0.00      -0.91   -2.96    0.37
#  14   -0.03   -0.17    0.01    0.19   -0.01    0.00    0.00      -0.01    1.91   -0.11
#  15    0.04   -0.15    0.01   -0.08   -0.03    0.00    0.00      -0.20   -1.12   -0.40
#  16    0.14   -0.09    0.00   -0.05   -0.02    0.00    0.00      -0.02   -1.09   -0.40
#  17   -0.36   -0.09    0.00    0.11   -0.01    0.00    0.00      -0.34    1.93   -0.12
#  18    0.47   -0.15    0.00   -0.21    0.03    0.00    0.00       0.13   -2.79    0.36
#  19    6.39   -0.39    0.01   -2.01    0.14    0.00    0.00       4.14  -12.69    0.87
#  20   -9.50   -1.15    0.25    4.27   -1.19    0.00    0.00      -7.30   16.53   -4.59
#  21    3.88   -1.18    0.23   -4.95    0.38    0.00    0.00      -1.65  -18.39    1.41
#  22   20.97   -3.92    6.12   -7.45    0.39    0.00    0.00      16.11  -20.07    1.05
#  23  -25.85   -0.52    0.98    7.07    0.25    0.00    0.00     -18.07   16.36    0.58
#  24  -24.55   -2.03    0.61   10.20   -1.87    0.00    0.00     -17.64   25.57   -4.69
#  25   31.26   -4.06    2.49  -13.44    0.46    0.00    0.00      16.71  -26.60    0.91
#  26   15.65   -0.80    0.05   -6.79    0.45    0.00    0.00       8.57  -22.61    1.51
#  27   -6.76   -0.29    0.01    2.05   -0.06    0.00    0.00      -5.06   12.18   -0.38
#  28    4.03   -0.59    0.08   -1.30   -0.04    0.00    0.00       2.17   -5.28   -0.18
#  29    1.37   -0.15    0.00   -0.43   -0.02    0.00    0.00       0.77   -4.66   -0.17
#  30    0.09   -0.07    0.00   -0.06   -0.02    0.00    0.00      -0.05   -1.65   -0.42
#  31    0.03   -0.05    0.00   -0.04   -0.01    0.00    0.00      -0.07   -1.15   -0.40
#  32    0.07   -0.05    0.00   -0.04   -0.01    0.00    0.00      -0.04   -1.50   -0.46
#  33    0.05   -0.05    0.00   -0.04   -0.01    0.00    0.00      -0.06   -1.70   -0.47
#  34    0.04   -0.05    0.00   -0.04   -0.01    0.00    0.00      -0.06   -1.72   -0.47
#  35    0.04   -0.07    0.00   -0.05   -0.02    0.00    0.00      -0.09   -1.49   -0.46
#  36    0.02   -0.08    0.00   -0.05   -0.02    0.00    0.00      -0.11   -1.16   -0.40
#  37    0.03   -0.17    0.01   -0.12   -0.03    0.00    0.00      -0.27   -1.64   -0.42
#  38   -1.99   -0.13    0.01    0.28   -0.04    0.00    0.00      -1.86    2.11   -0.27
#  39   -0.46   -0.19    0.04    0.54   -0.04    0.00    0.00      -0.11    3.72   -0.28
#  40   -0.77   -0.06    0.00    0.13   -0.02    0.00    0.00      -0.72    2.21   -0.26
#  41   -1.91   -0.12    0.01    0.21   -0.04    0.00    0.00      -1.84    1.63   -0.27
#  42   -3.36   -0.33    0.14    0.29   -0.06    0.00    0.00      -3.30    1.45   -0.28
#  43   -1.95   -0.11    0.01    0.41   -0.03    0.00    0.00      -1.67    3.58   -0.28
#  44   -4.90   -0.01    0.00    2.19    0.08    0.00    0.00      -2.64   16.33    0.58
#  45   -4.39   -0.02    0.00    4.73    0.17    0.00    0.00       0.49   15.94    0.59
#  46   -0.85   -0.01    0.00    1.14    0.07    0.00    0.00       0.36    9.63    0.60
#  47   -0.05   -0.05    0.00    0.14   -0.01    0.00    0.00       0.03    2.72   -0.26
#  48   -0.23   -0.03    0.00    0.08   -0.01    0.00    0.00      -0.19    2.24   -0.27
#  49   -0.37   -0.03    0.00    0.08   -0.01    0.00    0.00      -0.33    2.16   -0.26
#  50   -0.66   -0.03    0.00    0.11   -0.01    0.00    0.00      -0.59    2.93   -0.26
#  51   -2.84   -0.04    0.00    2.95    0.19    0.00    0.00       0.26    9.14    0.58
#  52  -22.26   -0.12    0.01   10.09    0.33    0.00    0.00     -11.95   17.79    0.59
#  53  -17.39   -0.06    0.00    8.65    0.29    0.00    0.00      -8.50   17.88    0.60
#  54   -9.50   -0.01    0.00    2.68    0.09    0.00    0.00      -6.73   16.51    0.58
#  55   -1.89   -0.20    0.03    0.48   -0.05    0.00    0.00      -1.64    2.37   -0.27
#  56   -3.49   -0.46    0.22    1.06   -0.08    0.00    0.00      -2.76    3.79   -0.28
#  57   -1.22   -0.10    0.01    0.29   -0.03    0.00    0.00      -1.06    2.30   -0.26
#  58   -0.60   -0.04    0.00    0.06   -0.01    0.00    0.00      -0.59    1.56   -0.28
#  59   -0.65   -0.03    0.00    0.12   -0.01    0.00    0.00      -0.57    3.83   -0.28
#  60   -0.55   -0.06    0.00    0.12   -0.02    0.00    0.00      -0.50    1.85   -0.27
#  61   -0.25   -0.02    0.00    0.05   -0.01    0.00    0.00      -0.22    2.35   -0.24
#  62   -0.10   -0.01    0.00    0.04   -0.01    0.00    0.00      -0.08    2.00   -0.28
#  63   -0.04   -0.01    0.00    0.02    0.00    0.00    0.00      -0.03    1.50   -0.28
#  64   -0.04   -0.01    0.00    0.02    0.00    0.00    0.00      -0.03    1.51   -0.28
#  65   -0.05   -0.02    0.00    0.04   -0.01    0.00    0.00      -0.03    2.07   -0.28
#  66   -0.04   -0.05    0.00    0.14   -0.01    0.00    0.00       0.03    2.44   -0.24

@<TRIPOS>MOLECULE
          T541363        14
   66    69     0     0     0



@<TRIPOS>ATOM
      1 C1          5.4223    -8.2885    92.6611 C.3        1          -0.1802
      2 C2          4.0268    -7.6860    92.8360 C.3        1           0.4165
      3 C3          3.9351    -6.3459    92.1036 C.3        1          -0.1665
      4 N1          3.7258    -7.5066    94.2672 N.pl3      1          -0.7203
      5 C4          2.4080    -7.2786    94.6182 C.cat      1           0.7706
      6 N2          2.0674    -6.3239    95.4865 N.pl3      1          -0.7300
      7 H1          2.7525    -5.7680    95.8896 H          1           0.4502
      8 H2          1.1347    -6.1860    95.7145 H          1           0.4476
      9 N3          1.4750    -8.0799    94.0303 N.pl3      1          -0.6828
     10 C5          1.6860    -8.3810    92.7024 C.2        1           0.6070
     11 N4          0.7026    -8.4420    91.8446 N.2        1          -0.6558
     12 N5          3.0034    -8.6159    92.3259 N.pl3      1          -0.5002
     13 O1          3.3478    -9.7031    91.4867 O.3        1          -0.0835
     14 C6          2.7182    -9.6697    90.2043 C.3        1           0.0643
     15 C7          3.4883   -10.5391    89.2438 C.ar       1          -0.0849
     16 C8          4.5279    -9.9851    88.4989 C.ar       1          -0.0840
     17 C9          4.8651    -8.5259    88.6660 C.3        1           0.0658
     18 O2          5.9558    -8.1877    87.8068 O.3        1          -0.0749
     19 N6          6.6414    -7.0075    88.1838 N.pl3      1          -0.4881
     20 C10         5.9896    -5.7889    88.2495 C.2        1           0.6085
     21 N7          4.6988    -5.7425    88.4447 N.2        1          -0.6887
     22 N8          6.7049    -4.6364    88.1082 N.pl3      1          -0.6393
     23 H3          6.2470    -3.7820    88.1468 H          1           0.4502
     24 C11         8.0395    -4.6668    87.9158 C.cat      1           0.7460
     25 N9          8.7229    -3.5273    87.7902 N.pl3      1          -0.7628
     26 N10         8.6951    -5.8745    87.8497 N.pl3      1          -0.6937
     27 C12         8.0751    -7.0327    88.5271 C.3        1           0.4082
     28 C13         8.2516    -6.9133    90.0421 C.3        1          -0.1800
     29 C14         8.7091    -8.3322    88.0269 C.3        1          -0.1674
     30 C15         5.2433   -10.7424    87.6232 C.ar       1          -0.0713
     31 C16         4.9315   -12.1036    87.4649 C.ar       1          -0.0479
     32 C17         5.6480   -12.9175    86.5709 C.ar       1          -0.1069
     33 C18         5.3181   -14.2316    86.4443 C.ar       1          -0.1035
     34 C19         4.2778   -14.7853    87.1885 C.ar       1          -0.1033
     35 C20         3.5620   -14.0278    88.0637 C.ar       1          -0.1072
     36 C21         3.8740   -12.6667    88.2221 C.ar       1          -0.0477
     37 C22         3.1616   -11.8545    89.1209 C.ar       1          -0.0722
     38 H4          6.1691    -7.5918    93.0419 H          1           0.0951
     39 H5          5.4851    -9.2261    93.2135 H          1           0.0991
     40 H6          5.6068    -8.4768    91.6035 H          1           0.0645
     41 H7          2.9375    -5.9272    92.2355 H          1           0.0982
     42 H8          4.6750    -5.6573    92.5120 H          1           0.0907
     43 H9          4.1278    -6.4982    91.0417 H          1           0.0958
     44 H10         4.4256    -7.5473    94.9378 H          1           0.4517
     45 H11         0.7079    -8.4185    94.5180 H          1           0.4553
     46 H12        -0.2068    -8.2729    92.1366 H          1           0.3694
     47 H13         1.6969   -10.0403    90.2911 H          1           0.0732
     48 H14         2.7024    -8.6447    89.8340 H          1           0.0893
     49 H15         3.9968    -7.9202    88.4063 H          1           0.0896
     50 H16         5.1454    -8.3341    89.7016 H          1           0.0735
     51 H17         4.2456    -4.8861    88.4901 H          1           0.3667
     52 H18         8.2598    -2.6763    87.8372 H          1           0.4452
     53 H19         9.6827    -3.5502    87.6519 H          1           0.4485
     54 H20         9.5372    -5.9618    87.3763 H          1           0.4503
     55 H21         9.3135    -6.9327    90.2869 H          1           0.0975
     56 H22         7.8166    -5.9748    90.3858 H          1           0.1017
     57 H23         7.7502    -7.7473    90.5332 H          1           0.0669
     58 H24         9.7680    -8.3425    88.2845 H          1           0.0917
     59 H25         8.2129    -9.1823    88.4951 H          1           0.0990
     60 H26         8.5979    -8.3976    86.9446 H          1           0.1013
     61 H27         6.0462   -10.2996    87.0527 H          1           0.1361
     62 H28         6.4562   -12.5020    85.9873 H          1           0.1305
     63 H29         5.8703   -14.8549    85.7565 H          1           0.1304
     64 H30         4.0357   -15.8308    87.0684 H          1           0.1304
     65 H31         2.7583   -14.4704    88.6335 H          1           0.1306
     66 H32         2.3564   -12.2710    89.7079 H          1           0.1363
@<TRIPOS>BOND
     1    1    2 1
     2    1   38 1
     3    1   39 1
     4    1   40 1
     5    2   12 1
     6    2    3 1
     7    2    4 1
     8    3   41 1
     9    3   42 1
    10    3   43 1
    11    4    5 1
    12    4   44 1
    13    5    6 2
    14    5    9 1
    15    6    7 1
    16    6    8 1
    17    9   10 1
    18    9   45 1
    19   10   11 2
    20   10   12 1
    21   11   46 1
    22   12   13 1
    23   13   14 1
    24   14   15 1
    25   14   47 1
    26   14   48 1
    27   15   37 ar
    28   15   16 ar
    29   16   17 1
    30   16   30 ar
    31   17   18 1
    32   17   49 1
    33   17   50 1
    34   18   19 1
    35   19   27 1
    36   19   20 1
    37   20   21 2
    38   20   22 1
    39   21   51 1
    40   22   23 1
    41   22   24 2
    42   24   25 1
    43   24   26 1
    44   25   52 1
    45   25   53 1
    46   26   27 1
    47   26   54 1
    48   27   28 1
    49   27   29 1
    50   28   55 1
    51   28   56 1
    52   28   57 1
    53   29   58 1
    54   29   59 1
    55   29   60 1
    56   30   31 ar
    57   30   61 1
    58   31   36 ar
    59   31   32 ar
    60   32   33 ar
    61   32   62 1
    62   33   34 ar
    63   33   63 1
    64   34   35 ar
    65   34   64 1
    66   35   36 ar
    67   35   65 1
    68   36   37 ar
    69   37   66 1
##########                 Name:              T525478
##########          Protonation:                   44
##########               SMILES:   C[C@H](C[C@H](C1)Nc3[nH+]c(nc(n3)N4CC[NH2+]CC4)NCCc5ccc(cc5)O)c6cccc(c6O2)Cl
##########            Long Name:   yl]amino]-4-piperazin-4-ium-1-yl-1,3,5-triazin-1-ium-2-yl]amino]ethyl]phenol
##########          FlexRecCode: 1
##########               Number:                  152
##########   Ligand Source File: /raidb/db2/rgc/tcams/tcams-0000157.db2.gz
##########           GlobalRank: 136
##########                 Rank:                    1
##########               Setnum:                  363
##########             Matchnum:                 4314
##########                Cloud:                    1
##########        Electrostatic:           -40.552948
##########        Van der Waals:           -29.973173
##########  Ligand Polar Desolv:             6.877571
########## Ligand Apolar Desolv:            -3.700400
##########      Internal Energy:             0.000000
##########      Receptor Energy: 0.0
########## Receptor Desolvation:             0.000000
########## Receptor Hydrophobic:             0.000000
##########         Total Energy: -67.35
##########        Ligand Charge:             2.000000
##########            Arbitrary:    +999.9990
##########     heavy atom count:   38
##########           pose count:    1
##########        Ligand Energy:             0.000000
# num electro vdwattr vdwrepu polsolv apolsol rdesolv rhydroe totalscore fullpol fullapo
#   1    0.80   -1.19    0.30   -1.13   -0.07    0.00    0.00      -1.28   -2.89   -0.18
#   2   -1.13   -0.64    0.08    0.83   -0.02    0.00    0.00      -0.88    2.61   -0.06
#   3    2.15   -0.40    0.01   -0.87   -0.05    0.00    0.00       0.85   -3.65   -0.19
#   4   -2.29   -0.53    0.03    1.00   -0.07    0.00    0.00      -1.86    3.54   -0.26
#   5    3.59   -0.87    0.10   -1.56   -0.08    0.00    0.00       1.18   -3.97   -0.21
#   6    0.92   -0.72    0.04   -0.47   -0.08    0.00    0.00      -0.31   -1.13   -0.20
#   7    2.52   -0.94    0.12   -1.45   -0.08    0.00    0.00       0.18   -3.32   -0.19
#   8    2.80   -0.81    0.03   -1.13   -0.06    0.00    0.00       0.83   -3.70   -0.20
#   9    2.58   -1.22    0.13   -1.03   -0.13    0.00    0.00       0.32   -2.83   -0.37
#  10    4.09   -1.27    0.17   -1.40   -0.14    0.00    0.00       1.45   -3.61   -0.36
#  11    1.17   -1.02    0.15   -0.20   -0.09    0.00    0.00       0.00   -0.72   -0.31
#  12    1.17   -0.67    0.06   -0.53   -0.05    0.00    0.00      -0.03   -2.41   -0.24
#  13    0.27   -1.15    0.21   -0.38   -0.17    0.00    0.00      -1.22   -2.12   -0.97
#  14   -1.63   -0.82    0.15    0.56   -0.03    0.00    0.00      -1.77    2.63   -0.15
#  15    0.71   -1.08    0.44   -1.57    0.14    0.00    0.00      -1.36   -6.89    0.63
#  16   15.61   -0.80    0.05   -5.21    0.22    0.00    0.00       9.86  -19.57    0.82
#  17  -15.35   -0.84    0.09    5.31   -0.70    0.00    0.00     -11.50   21.60   -2.85
#  18   22.04   -2.06    1.03   -6.33    0.26    0.00    0.00      14.94  -21.03    0.86
#  19  -23.76   -0.11    0.02    5.03    0.07    0.00    0.00     -18.76   15.88    0.23
#  20  -17.56   -1.33    0.34    6.49   -1.33    0.00    0.00     -13.39   23.51   -4.81
#  21   21.21   -2.29    1.08   -7.07    0.54    0.00    0.00      13.47  -22.50    1.73
#  22   -1.35   -0.69    0.12    0.82   -0.10    0.00    0.00      -1.20    3.22   -0.38
#  23    2.02   -0.80    0.11   -0.81   -0.08    0.00    0.00       0.44   -2.42   -0.23
#  24    2.83   -0.96    0.14   -0.50   -0.10    0.00    0.00       1.40   -1.74   -0.36
#  25    1.57   -0.48    0.02   -0.35   -0.08    0.00    0.00       0.69   -1.99   -0.46
#  26    1.90   -0.59    0.06   -0.58   -0.09    0.00    0.00       0.71   -3.06   -0.46
#  27   -1.59   -1.06    0.20    0.13   -0.09    0.00    0.00      -2.42    0.45   -0.31
#  28    3.26   -1.41    0.55   -2.03    0.38    0.00    0.00       0.75   -6.36    1.19
#  29    2.57   -1.63    0.52   -1.16   -0.17    0.00    0.00       0.12   -3.06   -0.46
#  30    2.47   -1.88    0.94   -0.73   -0.17    0.00    0.00       0.63   -1.96   -0.46
#  31    5.55   -0.53    0.03   -4.39    0.38    0.00    0.00       1.03  -21.20    1.84
#  32   -4.35   -0.39    0.02    3.63   -0.68    0.00    0.00      -1.76   22.68   -4.22
#  33    6.44   -0.48    0.03   -3.45    0.17    0.00    0.00       2.70  -20.01    1.00
#  34    1.00   -0.23    0.00   -1.99    0.16    0.00    0.00      -1.05  -20.55    1.70
#  35   -0.12   -0.13    0.00    0.18   -0.03    0.00    0.00      -0.10    2.23   -0.39
#  36    0.02   -0.06    0.00    0.01   -0.02    0.00    0.00      -0.05    0.26   -0.48
#  37    0.51   -0.09    0.00   -1.08    0.04    0.00    0.00      -0.62  -22.61    0.89
#  38   -0.45    0.00    0.00    0.72    0.02    0.00    0.00       0.29   22.69    0.56
#  39   -0.37    0.00    0.00    0.52    0.01    0.00    0.00       0.16   23.15    0.57
#  40    0.03   -0.11    0.00    0.02   -0.03    0.00    0.00      -0.11    0.22   -0.48
#  41   -0.14   -0.15    0.00    0.28   -0.04    0.00    0.00      -0.05    3.07   -0.48
#  42   -0.12   -0.19    0.02    0.52   -0.07    0.00    0.00       0.16    2.14   -0.28
#  43   -0.19   -0.93    0.97    0.37   -0.12    0.00    0.00       0.09    0.87   -0.28
#  44   -0.85   -0.50    0.29    0.06   -0.11    0.00    0.00      -1.10    0.16   -0.28
#  45   -0.86   -0.08    0.00    0.14   -0.02    0.00    0.00      -0.81    1.94   -0.28
#  46   -2.50   -0.18    0.02    0.76   -0.05    0.00    0.00      -1.95    3.99   -0.28
#  47   -2.04   -0.24    0.03    1.18   -0.06    0.00    0.00      -1.12    5.39   -0.27
#  48   -1.60   -0.49    0.17    1.29   -0.06    0.00    0.00      -0.69    3.82   -0.19
#  49   -3.43   -0.34    0.06    1.37   -0.09    0.00    0.00      -2.43    4.29   -0.28
#  50   -2.58   -0.33    0.04    1.03   -0.11    0.00    0.00      -1.95    2.63   -0.28
#  51   -3.08   -0.51    0.40    1.12   -0.11    0.00    0.00      -2.18    2.78   -0.28
#  52   -0.75   -0.50    0.20    0.07   -0.12    0.00    0.00      -1.10    0.17   -0.28
#  53   -3.36   -0.55    0.25    1.30   -0.09    0.00    0.00      -2.46    4.11   -0.28
#  54   -4.10   -0.35    0.05    2.10   -0.12    0.00    0.00      -2.42    5.00   -0.28
#  55   -3.57   -0.33    0.12    1.32   -0.05    0.00    0.00      -2.52    5.64   -0.22
#  56  -12.81   -0.01    0.00    1.66    0.04    0.00    0.00     -11.13   10.92    0.28
#  57  -20.98   -0.10    0.01    5.58    0.20    0.00    0.00     -15.28   15.99    0.58
#  58   -0.96   -0.07    0.00    0.27   -0.02    0.00    0.00      -0.77    4.09   -0.27
#  59   -0.45   -0.29    0.09    0.84   -0.05    0.00    0.00       0.14    4.24   -0.27
#  60   -1.69   -0.18    0.01    0.62   -0.05    0.00    0.00      -1.29    3.38   -0.28
#  61   -3.51   -0.56    0.27    1.17   -0.10    0.00    0.00      -2.74    3.33   -0.28
#  62   -1.71   -0.05    0.00    0.19   -0.01    0.00    0.00      -1.58    4.26   -0.28
#  63   -1.34   -0.09    0.01    0.13   -0.02    0.00    0.00      -1.32    1.55   -0.28
#  64   -2.06   -0.03    0.00    1.33    0.25    0.00    0.00      -0.52    6.58    1.22
#  65   -2.00   -0.44    0.12    0.64   -0.11    0.00    0.00      -1.80    1.60   -0.28
#  66   -4.25   -0.55    0.22    1.79   -0.12    0.00    0.00      -2.90    4.36   -0.28
#  67   -0.15   -0.05    0.00    0.32   -0.01    0.00    0.00       0.11    5.96   -0.27
#  68   -0.26   -0.04    0.00    0.13   -0.01    0.00    0.00      -0.17    3.38   -0.21
#  69   -0.16   -0.02    0.00    0.19   -0.01    0.00    0.00       0.01    7.98   -0.28
#  70   -0.12   -0.01    0.00    0.13   -0.01    0.00    0.00      -0.02    5.40   -0.28
#  71   -0.20   -0.04    0.00    0.36   -0.01    0.00    0.00       0.11    8.56   -0.28
#  72   -0.12   -0.04    0.00    0.22   -0.01    0.00    0.00       0.05    5.52   -0.28
#  73   -0.27   -0.05    0.00    0.22   -0.01    0.00    0.00      -0.11    4.33   -0.24
#  74   -0.17   -0.05    0.00    0.31   -0.01    0.00    0.00       0.07    5.81   -0.28

@<TRIPOS>MOLECULE
          T525478        44
   74    79     0     0     0



@<TRIPOS>ATOM
      1 C1          0.5386    -8.9952    94.0483 C.3        1          -0.1498
      2 C2          1.4575    -7.7872    94.2410 C.3        1           0.1186
      3 C3          0.9161    -6.6261    93.4170 C.3        1          -0.1464
      4 C4          1.7415    -5.3619    93.6533 C.3        1           0.1113
      5 C5          1.7452    -5.0223    95.1472 C.3        1          -0.1426
      6 C6          2.3894    -6.1977    95.9018 C.3        1          -0.0436
      7 C7          1.4807    -7.4218    95.7275 C.3        1          -0.1491
      8 C8          3.7195    -6.4847    95.2435 C.ar       1          -0.1508
      9 C9          4.8366    -5.7809    95.6583 C.ar       1          -0.1029
     10 C10         6.0639    -6.0146    95.0690 C.ar       1          -0.1412
     11 C11         6.1776    -6.9541    94.0607 C.ar       1          -0.0465
     12 C12         5.0666    -7.6611    93.6463 C.ar       1          -0.0785
     13 Cl1         5.2133    -8.8402    92.3806 Cl         1          -0.0349
     14 C13         3.8280    -7.4308    94.2411 C.ar       1           0.1478
     15 O1          2.7674    -8.1399    93.8171 O.3        1          -0.2946
     16 N1          3.1167    -5.5856    93.2004 N.pl3      1          -0.6476
     17 C14         3.3654    -5.9049    91.8809 C.ar       1           0.7003
     18 N2          4.5140    -5.5464    91.3154 N.ar       1          -0.6319
     19 H1          5.1772    -5.0606    91.8301 H          1           0.4397
     20 C15         4.7537    -5.8542    90.0447 C.ar       1           0.6958
     21 N3          5.9462    -5.4825    89.4578 N.pl3      1          -0.6521
     22 C16         6.2104    -5.8217    88.0573 C.3        1           0.0879
     23 C17         7.5914    -5.2984    87.6577 C.3        1          -0.0826
     24 C18         8.6414    -5.9309    88.5344 C.ar       1          -0.1175
     25 C19         8.4411    -7.2003    89.0447 C.ar       1          -0.0931
     26 C20         9.4020    -7.7822    89.8488 C.ar       1          -0.1426
     27 C21        10.5688    -7.0921    90.1437 C.ar       1           0.1241
     28 O2         11.5158    -7.6627    90.9339 O.3        1          -0.4956
     29 C22        10.7675    -5.8188    89.6300 C.ar       1          -0.1425
     30 C23         9.8057    -5.2431    88.8225 C.ar       1          -0.0928
     31 N4          3.8449    -6.5206    89.3393 N.ar       1          -0.6217
     32 C24         2.6963    -6.8786    89.9046 C.ar       1           0.6903
     33 N5          2.4588    -6.5754    91.1772 N.ar       1          -0.6087
     34 N6          1.7527    -7.5698    89.1722 N.pl3      1          -0.5671
     35 C25         1.9989    -7.9265    87.7663 C.3        1           0.0848
     36 C26         1.7067    -9.4197    87.5858 C.3        1          -0.0225
     37 N7          0.3465    -9.7116    88.0557 N.4        1          -0.5084
     38 H2         -0.3102    -9.1194    87.5700 H          1           0.4329
     39 H3          0.1276   -10.6787    87.8689 H          1           0.4425
     40 C27         0.2522    -9.4623    89.4998 C.3        1          -0.0220
     41 C28         0.4747    -7.9761    89.7768 C.3        1           0.0927
     42 H4          0.5123    -9.2671    92.9930 H          1           0.0901
     43 H5          0.9164    -9.8356    94.6306 H          1           0.0769
     44 H6         -0.4675    -8.7437    94.3840 H          1           0.0784
     45 H7          0.9553    -6.8877    92.3595 H          1           0.1006
     46 H8         -0.1191    -6.4368    93.7008 H          1           0.1263
     47 H9          1.3057    -4.5342    93.0939 H          1           0.1066
     48 H10         2.3239    -4.1143    95.3168 H          1           0.0593
     49 H11         0.7222    -4.8780    95.4945 H          1           0.1186
     50 H12         2.5142    -5.9568    96.9576 H          1           0.1134
     51 H13         0.4694    -7.1989    96.0678 H          1           0.1052
     52 H14         1.8897    -8.2513    96.3044 H          1           0.0927
     53 H15         4.7483    -5.0463    96.4450 H          1           0.1264
     54 H16         6.9338    -5.4639    95.3952 H          1           0.1271
     55 H17         7.1360    -7.1345    93.5967 H          1           0.1354
     56 H18         3.8525    -5.5093    93.8279 H          1           0.4476
     57 H19         6.6094    -4.9967    89.9726 H          1           0.4462
     58 H20         6.1826    -6.9045    87.9342 H          1           0.0906
     59 H21         5.4509    -5.3644    87.4232 H          1           0.0904
     60 H22         7.7882    -5.5508    86.6157 H          1           0.0942
     61 H23         7.6193    -4.2157    87.7807 H          1           0.0940
     62 H24         7.5326    -7.7371    88.8149 H          1           0.1279
     63 H25         9.2449    -8.7735    90.2477 H          1           0.1354
     64 H26        11.2877    -8.5502    91.2429 H          1           0.3981
     65 H27        11.6748    -5.2794    89.8585 H          1           0.1354
     66 H28         9.9617    -4.2535    88.4192 H          1           0.1280
     67 H29         1.3423    -7.3440    87.1202 H          1           0.1125
     68 H30         3.0398    -7.7239    87.5140 H          1           0.1491
     69 H31         1.7908    -9.6816    86.5310 H          1           0.1582
     70 H32         2.4238   -10.0030    88.1635 H          1           0.1398
     71 H33        -0.7356    -9.7557    89.8555 H          1           0.1580
     72 H34         1.0133   -10.0443    90.0195 H          1           0.1385
     73 H35         0.5084    -7.8064    90.8531 H          1           0.1480
     74 H36        -0.3386    -7.3988    89.3372 H          1           0.1119
@<TRIPOS>BOND
     1    1    2 1
     2    1   42 1
     3    1   43 1
     4    1   44 1
     5    2    7 1
     6    2   15 1
     7    2    3 1
     8    3    4 1
     9    3   45 1
    10    3   46 1
    11    4    5 1
    12    4   16 1
    13    4   47 1
    14    5    6 1
    15    5   48 1
    16    5   49 1
    17    6    7 1
    18    6    8 1
    19    6   50 1
    20    7   51 1
    21    7   52 1
    22    8   14 ar
    23    8    9 ar
    24    9   10 ar
    25    9   53 1
    26   10   11 ar
    27   10   54 1
    28   11   12 ar
    29   11   55 1
    30   12   13 1
    31   12   14 ar
    32   14   15 1
    33   16   17 1
    34   16   56 1
    35   17   33 ar
    36   17   18 ar
    37   18   19 1
    38   18   20 ar
    39   20   21 1
    40   20   31 ar
    41   21   22 1
    42   21   57 1
    43   22   23 1
    44   22   58 1
    45   22   59 1
    46   23   24 1
    47   23   60 1
    48   23   61 1
    49   24   30 ar
    50   24   25 ar
    51   25   26 ar
    52   25   62 1
    53   26   27 ar
    54   26   63 1
    55   27   28 1
    56   27   29 ar
    57   28   64 1
    58   29   30 ar
    59   29   65 1
    60   30   66 1
    61   31   32 ar
    62   32   33 ar
    63   32   34 1
    64   34   41 1
    65   34   35 1
    66   35   36 1
    67   35   67 1
    68   35   68 1
    69   36   37 1
    70   36   69 1
    71   36   70 1
    72   37   38 1
    73   37   39 1
    74   37   40 1
    75   40   41 1
    76   40   71 1
    77   40   72 1
    78   41   73 1
    79   41   74 1
##########                 Name:              T538202
##########          Protonation:                   36
##########               SMILES:   CN(CCC[NH2+]C[C@@H](c1ccnc2c1cc(cc2)OC)O)CCOc3cc(cc(c3)F)F
##########            Long Name:   l-methyl-amino]propyl-[(2R)-2-hydroxy-2-(6-methoxy-4-quinolyl)ethyl]ammonium
##########          FlexRecCode: 1
##########               Number:                  208
##########   Ligand Source File: /raidb/db2/rgc/tcams/tcams-0001819.db2.gz
##########           GlobalRank: 136
##########                 Rank:                    1
##########               Setnum:                   48
##########             Matchnum:                 5123
##########                Cloud:                    1
##########        Electrostatic:           -51.927822
##########        Van der Waals:           -28.874382
##########  Ligand Polar Desolv:            14.673337
########## Ligand Apolar Desolv:            -1.224805
##########      Internal Energy:             0.000000
##########      Receptor Energy: 0.0
########## Receptor Desolvation:             0.000000
########## Receptor Hydrophobic:             0.000000
##########         Total Energy: -67.35
##########        Ligand Charge:             1.000000
##########            Arbitrary:    +999.9990
##########     heavy atom count:   32
##########           pose count:    1
##########        Ligand Energy:             0.000000
# num electro vdwattr vdwrepu polsolv apolsol rdesolv rhydroe totalscore fullpol fullapo
#   1   -0.36   -0.68    0.08    0.04    0.01    0.00    0.00      -0.92    0.12    0.03
#   2    7.73   -1.09    0.19   -1.35    0.32    0.00    0.00       5.81   -3.91    0.93
#   3   -3.30   -0.70    0.05    0.27   -0.08    0.00    0.00      -3.77    1.03   -0.31
#   4    4.53   -1.07    0.17   -0.54   -0.12    0.00    0.00       2.98   -1.99   -0.43
#   5    0.62   -0.52    0.03   -0.19   -0.07    0.00    0.00      -0.14   -1.05   -0.40
#   6    0.97   -0.69    0.06   -0.21   -0.08    0.00    0.00       0.06   -0.96   -0.35
#   7    0.47   -0.34    0.01   -0.37   -0.06    0.00    0.00      -0.29   -2.69   -0.44
#   8   -0.27   -0.18    0.00    0.08   -0.07    0.00    0.00      -0.45    1.07   -0.97
#   9    1.35   -0.21    0.01   -0.34    0.17    0.00    0.00       0.98   -3.96    1.99
#  10   -0.68   -0.31    0.01    0.02   -0.09    0.00    0.00      -1.04    0.19   -0.73
#  11    0.23   -0.45    0.06   -0.12   -0.06    0.00    0.00      -0.34   -0.90   -0.46
#  12    2.00   -0.45    0.02   -0.28   -0.07    0.00    0.00       1.21   -1.62   -0.43
#  13   -3.83   -1.65    0.85    1.37   -0.04    0.00    0.00      -3.31    4.00   -0.13
#  14    6.19   -2.94    1.78   -5.85    0.60    0.00    0.00      -0.23  -15.42    1.58
#  15    1.50   -1.41    0.85   -0.14   -0.11    0.00    0.00       0.69   -0.49   -0.38
#  16   21.31   -3.08    3.37   -6.29    0.26    0.00    0.00      15.58  -17.50    0.73
#  17  -28.37   -0.27    0.14    7.97    0.26    0.00    0.00     -20.27   17.43    0.57
#  18  -11.99   -0.04    0.00    5.24    0.16    0.00    0.00      -6.63   17.12    0.52
#  19    0.30   -1.01    0.32    0.25   -0.13    0.00    0.00      -0.27    0.79   -0.40
#  20    4.89   -1.17    0.19   -1.73   -0.09    0.00    0.00       2.08   -4.03   -0.22
#  21   -1.61   -1.18    0.19    0.38   -0.17    0.00    0.00      -2.38    0.87   -0.38
#  22   11.08   -0.99    0.05   -3.79    1.25    0.00    0.00       7.60   -9.93    3.28
#  23   -0.25   -0.68    0.05    0.08   -0.18    0.00    0.00      -0.97    0.22   -0.48
#  24   -0.97   -1.25    0.27    0.45   -0.20    0.00    0.00      -1.70    0.92   -0.40
#  25   -0.87   -1.32    0.24    0.21   -0.05    0.00    0.00      -1.79    0.47   -0.10
#  26    3.16   -1.05    0.09   -1.13    0.32    0.00    0.00       1.41   -3.05    0.88
#  27   -1.82   -1.48    0.20    0.69   -0.12    0.00    0.00      -2.54    1.71   -0.31
#  28    1.18   -1.72    0.37   -0.71   -0.15    0.00    0.00      -1.03   -1.95   -0.42
#  29   -1.20   -1.44    0.20    0.27   -0.13    0.00    0.00      -2.31    0.70   -0.34
#  30    0.78   -0.64    0.03   -0.24   -0.21    0.00    0.00      -0.28   -0.55   -0.48
#  31    2.57   -1.63    0.35   -0.55   -0.21    0.00    0.00       0.53   -1.23   -0.46
#  32   -2.74   -1.92    0.35    0.41   -0.18    0.00    0.00      -4.09    0.75   -0.34
#  33    2.71   -1.58    0.34   -0.36   -0.29    0.00    0.00       0.82   -0.58   -0.48
#  34    2.84   -1.73    0.23   -0.74   -0.23    0.00    0.00       0.37   -1.47   -0.46
#  35   -2.29   -0.31    0.05    0.58   -0.09    0.00    0.00      -2.06    1.75   -0.28
#  36   -0.56   -0.09    0.00    0.06   -0.02    0.00    0.00      -0.60    0.84   -0.27
#  37   -1.31   -0.28    0.07    0.14   -0.06    0.00    0.00      -1.44    0.62   -0.27
#  38   -5.06   -0.63    0.39    1.65   -0.07    0.00    0.00      -3.73    5.16   -0.22
#  39   -0.37   -0.07    0.00    0.38   -0.02    0.00    0.00      -0.07    5.34   -0.22
#  40   -0.26   -0.02    0.00    0.07   -0.01    0.00    0.00      -0.22    2.24   -0.28
#  41   -0.42   -0.10    0.02    0.04   -0.03    0.00    0.00      -0.49    0.40   -0.28
#  42   -0.84   -0.08    0.00    0.11   -0.02    0.00    0.00      -0.82    1.39   -0.22
#  43   -6.86   -1.52    2.96    1.80   -0.09    0.00    0.00      -3.72    4.44   -0.23
#  44  -10.23   -0.15    0.03    5.98    0.47    0.00    0.00      -3.89   12.63    1.00
#  45   -2.89   -0.11    0.01    0.62   -0.03    0.00    0.00      -2.40    6.20   -0.28
#  46   -6.48   -0.80    1.32    1.32   -0.07    0.00    0.00      -4.70    5.40   -0.28
#  47   -3.07   -0.11    0.00    0.60   -0.03    0.00    0.00      -2.61    5.42   -0.28
#  48   -5.71   -0.51    0.56    1.15   -0.06    0.00    0.00      -4.57    5.25   -0.28
#  49   -3.55   -0.65    0.20    1.34   -0.11    0.00    0.00      -2.77    2.73   -0.22
#  50   -2.66   -0.31    0.05    0.72   -0.08    0.00    0.00      -2.29    2.53   -0.28
#  51   -2.52   -0.39    0.08    0.58   -0.08    0.00    0.00      -2.33    1.91   -0.27
#  52   -1.29   -0.82    0.48    0.46   -0.11    0.00    0.00      -1.29    1.12   -0.28
#  53   -1.51   -0.21    0.02    0.51   -0.05    0.00    0.00      -1.25    2.11   -0.22
#  54   -2.29   -0.34    0.07    0.13   -0.08    0.00    0.00      -2.51    0.38   -0.22
#  55   -0.71   -0.13    0.00    0.06   -0.03    0.00    0.00      -0.81    0.52   -0.28
#  56   -2.07   -0.64    0.41    0.69   -0.13    0.00    0.00      -1.74    1.43   -0.27
#  57   -0.73   -0.49    0.16    0.50   -0.11    0.00    0.00      -0.67    1.28   -0.28
#  58   -1.59   -0.63    0.40    0.40   -0.10    0.00    0.00      -1.52    1.04   -0.27
#  59   -0.93   -0.64    0.23    0.48   -0.10    0.00    0.00      -0.95    1.00   -0.20
#  60    0.12   -0.57    0.47    0.52   -0.06    0.00    0.00       0.47    1.85   -0.22
#  61   -1.72   -0.28    0.03    0.24   -0.09    0.00    0.00      -1.83    0.74   -0.28
#  62   -2.28   -0.48    0.21    0.75   -0.12    0.00    0.00      -1.93    1.70   -0.28

@<TRIPOS>MOLECULE
          T538202        36
   62    64     0     0     0



@<TRIPOS>ATOM
      1 C1         11.1128    -5.8895    88.1555 C.3        1           0.0201
      2 O1          9.8258    -5.5013    88.6405 O.3        1          -0.3136
      3 C2          8.7591    -6.2206    88.2032 C.ar       1           0.1588
      4 C3          7.5028    -5.8923    88.6286 C.ar       1          -0.1803
      5 C4          6.4019    -6.6354    88.1765 C.ar       1          -0.0445
      6 C5          5.0916    -6.3289    88.5907 C.ar       1          -0.0975
      7 C6          4.0681    -7.0947    88.1101 C.ar       1          -0.1322
      8 C7          4.3371    -8.1452    87.2352 C.ar       1           0.1194
      9 N1          5.5582    -8.4279    86.8513 N.ar       1          -0.4411
     10 C8          6.6050    -7.7180    87.2843 C.ar       1           0.0971
     11 C9          7.9121    -8.0271    86.8682 C.ar       1          -0.0343
     12 C10         8.9587    -7.2846    87.3186 C.ar       1          -0.1758
     13 C11         4.8260    -5.1878    89.5385 C.3        1           0.1343
     14 O2          3.5319    -4.6414    89.2754 O.3        1          -0.5427
     15 C12         4.8804    -5.6985    90.9797 C.3        1          -0.0431
     16 N2          4.1744    -4.7577    91.8596 N.4        1          -0.5039
     17 H1          4.6158    -3.8518    91.8068 H          1           0.4298
     18 H2          3.2121    -4.6804    91.5663 H          1           0.4337
     19 C13         4.2268    -5.2481    93.2434 C.3        1          -0.0084
     20 C14         3.4913    -4.2683    94.1599 C.3        1          -0.1493
     21 C15         3.5459    -4.7790    95.6010 C.3        1           0.0575
     22 N3          2.9033    -6.0977    95.6779 N.3        1          -0.5347
     23 C16         1.4977    -6.0237    95.2573 C.3        1           0.0105
     24 C17         3.0193    -6.6621    97.0292 C.3        1           0.0558
     25 C18         4.4976    -6.8148    97.3927 C.3        1           0.0560
     26 O3          5.1309    -7.6883    96.4558 O.3        1          -0.2891
     27 C19         6.1793    -8.4243    96.9095 C.ar       1           0.1897
     28 C20         6.4498    -9.6649    96.3511 C.ar       1          -0.2615
     29 C21         7.5177   -10.4133    96.8140 C.ar       1           0.1759
     30 F1          7.7816   -11.6214    96.2701 F          1          -0.1238
     31 C22         8.3160    -9.9244    97.8341 C.ar       1          -0.2291
     32 C23         8.0469    -8.6864    98.3927 C.ar       1           0.1754
     33 F2          8.8269    -8.2107    99.3880 F          1          -0.1211
     34 C24         6.9834    -7.9331    97.9274 C.ar       1          -0.2004
     35 H3         11.8739    -5.2355    88.5811 H          1           0.1093
     36 H4         11.3152    -6.9201    88.4471 H          1           0.0627
     37 H5         11.1310    -5.8090    87.0687 H          1           0.0637
     38 H6          7.3581    -5.0660    89.3088 H          1           0.1309
     39 H7          3.0512    -6.8866    88.4082 H          1           0.1417
     40 H8          3.5178    -8.7426    86.8634 H          1           0.1692
     41 H9          8.0839    -8.8489    86.1888 H          1           0.1495
     42 H10         9.9599    -7.5235    86.9918 H          1           0.1457
     43 H11         5.5820    -4.4152    89.3978 H          1           0.1382
     44 H12         3.2936    -3.9009    89.8499 H          1           0.3898
     45 H13         4.4037    -6.6770    91.0367 H          1           0.1407
     46 H14         5.9200    -5.7819    91.2964 H          1           0.1461
     47 H15         3.7499    -6.2265    93.3003 H          1           0.1342
     48 H16         5.2664    -5.3315    93.5602 H          1           0.1319
     49 H17         3.9683    -3.2898    94.1029 H          1           0.0889
     50 H18         2.4518    -4.1848    93.8430 H          1           0.0998
     51 H19         4.5856    -4.8624    95.9178 H          1           0.0873
     52 H20         3.0221    -4.0809    96.2541 H          1           0.0460
     53 H21         1.0460    -7.0135    95.3237 H          1           0.0713
     54 H22         0.9596    -5.3343    95.9077 H          1           0.0765
     55 H23         1.4447    -5.6685    94.2281 H          1           0.0331
     56 H24         2.5363    -5.9956    97.7439 H          1           0.0936
     57 H25         2.5354    -7.6382    97.0581 H          1           0.0655
     58 H26         4.9816    -5.8385    97.3639 H          1           0.0768
     59 H27         4.5838    -7.2334    98.3954 H          1           0.0705
     60 H28         5.8269   -10.0467    95.5556 H          1           0.1458
     61 H29         9.1493   -10.5093    98.1946 H          1           0.1532
     62 H30         6.7768    -6.9652    98.3598 H          1           0.1507
@<TRIPOS>BOND
     1    1    2 1
     2    1   35 1
     3    1   36 1
     4    1   37 1
     5    2    3 1
     6    3   12 ar
     7    3    4 ar
     8    4    5 ar
     9    4   38 1
    10    5   10 ar
    11    5    6 ar
    12    6    7 ar
    13    6   13 1
    14    7    8 ar
    15    7   39 1
    16    8    9 ar
    17    8   40 1
    18    9   10 ar
    19   10   11 ar
    20   11   12 ar
    21   11   41 1
    22   12   42 1
    23   13   14 1
    24   13   15 1
    25   13   43 1
    26   14   44 1
    27   15   16 1
    28   15   45 1
    29   15   46 1
    30   16   17 1
    31   16   18 1
    32   16   19 1
    33   19   20 1
    34   19   47 1
    35   19   48 1
    36   20   21 1
    37   20   49 1
    38   20   50 1
    39   21   22 1
    40   21   51 1
    41   21   52 1
    42   22   23 1
    43   22   24 1
    44   23   53 1
    45   23   54 1
    46   23   55 1
    47   24   25 1
    48   24   56 1
    49   24   57 1
    50   25   26 1
    51   25   58 1
    52   25   59 1
    53   26   27 1
    54   27   34 ar
    55   27   28 ar
    56   28   29 ar
    57   28   60 1
    58   29   30 1
    59   29   31 ar
    60   31   32 ar
    61   31   61 1
    62   32   33 1
    63   32   34 ar
    64   34   62 1
##########                 Name:              T532865
##########          Protonation:                   99
##########               SMILES:   @H]([C@H](CC[C@@H](C[NH+]2CCCCCC2)[C@@H](c3ccc(cc3)OCCCCC)O)C[NH+]4CCCCCC4)O
##########            Long Name:   6S)-2,5-bis(azepan-1-ium-1-ylmethyl)-1,6-bis(4-pentoxyphenyl)hexane-1,6-diol
##########          FlexRecCode: 1
##########               Number:                  104
##########   Ligand Source File: /raidb/db2/rgc/tcams/tcams-0002418.db2.gz
##########           GlobalRank: 136
##########                 Rank:                    1
##########               Setnum:                   14
##########             Matchnum:                 2464
##########                Cloud:                    1
##########        Electrostatic:           -41.806923
##########        Van der Waals:           -27.488794
##########  Ligand Polar Desolv:             5.636753
########## Ligand Apolar Desolv:            -3.687975
##########      Internal Energy:             0.000000
##########      Receptor Energy: 0.0
########## Receptor Desolvation:             0.000000
########## Receptor Hydrophobic:             0.000000
##########         Total Energy: -67.35
##########        Ligand Charge:             2.000000
##########            Arbitrary:    +999.9990
##########     heavy atom count:   48
##########           pose count:    1
##########        Ligand Energy:             0.000000
# num electro vdwattr vdwrepu polsolv apolsol rdesolv rhydroe totalscore fullpol fullapo
#   1    0.05   -0.10    0.00   -0.10   -0.01    0.00    0.00      -0.16   -1.96   -0.19
#   2    0.05   -0.28    0.01   -0.27   -0.04    0.00    0.00      -0.52   -1.72   -0.25
#   3    0.09   -0.34    0.02   -0.30   -0.04    0.00    0.00      -0.57   -1.61   -0.22
#   4    0.12   -1.19    0.53   -0.62   -0.08    0.00    0.00      -1.23   -1.89   -0.24
#   5   -0.08   -1.11    0.31    0.47   -0.03    0.00    0.00      -0.45    1.39   -0.09
#   6    0.49   -0.56    0.02   -1.78    0.24    0.00    0.00      -1.59   -6.60    0.89
#   7   -0.30   -0.49    0.02    0.26   -0.06    0.00    0.00      -0.56    1.44   -0.31
#   8    0.35   -0.25    0.01   -0.58   -0.04    0.00    0.00      -0.51   -5.96   -0.42
#   9    0.13   -0.19    0.00   -0.13   -0.03    0.00    0.00      -0.22   -1.72   -0.44
#  10    0.52   -0.33    0.01   -0.72   -0.03    0.00    0.00      -0.56   -5.51   -0.22
#  11    0.23   -0.74    0.08   -0.62   -0.08    0.00    0.00      -1.15   -2.65   -0.36
#  12    0.33   -0.78    0.06   -1.34   -0.13    0.00    0.00      -1.88   -4.68   -0.46
#  13   -0.72   -0.25    0.01    0.92   -0.02    0.00    0.00      -0.07    6.12   -0.13
#  14    1.96   -1.22    0.32   -5.94    0.45    0.00    0.00      -4.43  -20.77    1.59
#  15    1.62   -0.21    0.01   -0.77   -0.01    0.00    0.00       0.63   -5.79   -0.11
#  16    2.25   -0.29    0.02   -0.98   -0.03    0.00    0.00       0.96   -5.99   -0.17
#  17    1.44   -0.15    0.00   -0.71   -0.02    0.00    0.00       0.58   -7.38   -0.17
#  18    1.62   -0.28    0.01   -0.96   -0.02    0.00    0.00       0.37   -5.57   -0.12
#  19    0.53   -0.36    0.02   -0.37   -0.04    0.00    0.00      -0.22   -1.83   -0.22
#  20    5.39   -0.60    0.05   -3.63    0.05    0.00    0.00       1.27  -14.90    0.19
#  21   -2.43   -0.02    0.00    3.61    0.05    0.00    0.00       1.21   23.18    0.32
#  22    0.25   -0.49    0.03   -0.14   -0.08    0.00    0.00      -0.42   -0.60   -0.33
#  23    1.29   -0.96    0.26   -1.79   -0.07    0.00    0.00      -1.27   -5.18   -0.20
#  24    2.12   -1.08    0.17   -1.79   -0.11    0.00    0.00      -0.70   -4.26   -0.25
#  25    2.94   -1.18    0.47   -1.95   -0.10    0.00    0.00       0.18   -4.40   -0.23
#  26    2.45   -0.91    0.15   -1.79   -0.09    0.00    0.00      -0.19   -4.86   -0.24
#  27    0.88   -0.85    0.18   -0.24   -0.11    0.00    0.00      -0.13   -0.81   -0.35
#  28   -0.41   -0.77    0.41    1.27   -0.02    0.00    0.00       0.49    6.94   -0.12
#  29   -0.11   -2.03    1.48   -5.41    0.41    0.00    0.00      -5.65  -21.32    1.61
#  30    0.61   -0.63    0.15   -0.64   -0.05    0.00    0.00      -0.56   -4.11   -0.31
#  31    0.47   -0.45    0.03   -0.28   -0.06    0.00    0.00      -0.28   -1.65   -0.34
#  32    0.78   -0.42    0.02   -0.67   -0.07    0.00    0.00      -0.36   -4.16   -0.46
#  33   -0.63   -0.39    0.03    0.10   -0.04    0.00    0.00      -0.93    0.75   -0.31
#  34    0.79   -0.36    0.04   -0.62    0.11    0.00    0.00      -0.04   -5.02    0.89
#  35   -0.25   -0.67    0.17    0.21   -0.02    0.00    0.00      -0.55    1.09   -0.09
#  36    0.44   -0.70    0.22   -0.30   -0.05    0.00    0.00      -0.39   -1.49   -0.24
#  37    0.18   -1.02    0.33   -0.38   -0.06    0.00    0.00      -0.95   -1.39   -0.22
#  38    0.03   -0.53    0.05   -0.35   -0.06    0.00    0.00      -0.87   -1.47   -0.25
#  39    0.03   -0.66    0.07   -0.47   -0.05    0.00    0.00      -1.07   -1.72   -0.19
#  40    0.42   -0.33    0.02   -0.63   -0.05    0.00    0.00      -0.57   -4.95   -0.42
#  41    0.07   -0.61    0.18   -0.28   -0.06    0.00    0.00      -0.70   -1.94   -0.45
#  42    0.42   -0.45    0.03   -0.51   -0.07    0.00    0.00      -0.57   -2.19   -0.28
#  43    5.83   -0.42    0.02   -3.24    0.04    0.00    0.00       2.22  -15.38    0.19
#  44   -5.95    0.00    0.00    0.92    0.01    0.00    0.00      -5.02   15.78    0.20
#  45    0.29   -0.65    0.05   -0.24   -0.12    0.00    0.00      -0.68   -0.68   -0.36
#  46    2.68   -0.58    0.05   -1.61   -0.07    0.00    0.00       0.47   -5.26   -0.23
#  47    1.11   -0.82    0.20   -1.15   -0.07    0.00    0.00      -0.73   -4.00   -0.25
#  48    0.75   -0.82    0.18   -1.10   -0.06    0.00    0.00      -1.06   -3.91   -0.23
#  49    0.36   -0.40    0.07   -0.80   -0.04    0.00    0.00      -0.82   -4.42   -0.24
#  50    0.35   -0.58    0.20   -0.13   -0.07    0.00    0.00      -0.23   -0.71   -0.35
#  51   -0.01   -0.02    0.00    0.01   -0.01    0.00    0.00      -0.04    0.30   -0.28
#  52   -0.02   -0.02    0.00    0.02   -0.01    0.00    0.00      -0.02    0.87   -0.28
#  53   -0.03   -0.02    0.00    0.02   -0.01    0.00    0.00      -0.04    0.67   -0.28
#  54   -0.01   -0.11    0.01    0.09   -0.03    0.00    0.00      -0.07    0.70   -0.28
#  55   -0.03   -0.11    0.01    0.05   -0.03    0.00    0.00      -0.11    0.46   -0.28
#  56   -0.06   -0.09    0.00    0.10   -0.03    0.00    0.00      -0.06    1.13   -0.28
#  57   -0.05   -0.06    0.00    0.08   -0.01    0.00    0.00      -0.04    1.60   -0.28
#  58   -0.06   -0.56    0.49    0.25   -0.08    0.00    0.00       0.04    0.85   -0.28
#  59   -0.08   -0.68    0.58    0.14   -0.10    0.00    0.00      -0.13    0.38   -0.28
#  60   -0.12   -0.54    0.16    0.49   -0.10    0.00    0.00      -0.12    1.27   -0.27
#  61   -0.10   -0.59    0.85    0.56   -0.07    0.00    0.00       0.65    2.32   -0.27
#  62   -0.19   -0.03    0.00    0.12   -0.01    0.00    0.00      -0.12    3.41   -0.22
#  63   -0.25   -0.02    0.00    0.21   -0.01    0.00    0.00      -0.06    8.19   -0.28
#  64   -0.32   -0.41    0.23    1.23   -0.05    0.00    0.00       0.69    5.68   -0.21
#  65   -0.31   -0.28    0.04    0.46   -0.08    0.00    0.00      -0.16    1.70   -0.28
#  66   -0.69   -0.04    0.00    0.24   -0.01    0.00    0.00      -0.50    5.65   -0.28
#  67   -7.14   -0.03    0.00    4.25    0.20    0.00    0.00      -2.72   14.79    0.71
#  68   -0.76   -0.03    0.00    0.32   -0.01    0.00    0.00      -0.48    9.03   -0.20
#  69   -2.12   -0.11    0.01    0.44   -0.03    0.00    0.00      -1.81    3.57   -0.27
#  70   -2.00   -0.16    0.02    0.76   -0.03    0.00    0.00      -1.41    5.39   -0.20
#  71   -0.47   -0.03    0.00    0.29   -0.01    0.00    0.00      -0.22    8.41   -0.23
#  72   -0.69   -0.03    0.00    0.16   -0.01    0.00    0.00      -0.56    5.26   -0.20
#  73   -1.59   -0.12    0.01    0.61   -0.02    0.00    0.00      -1.11    5.83   -0.19
#  74   -3.95   -0.20    0.05    1.53   -0.03    0.00    0.00      -2.60   10.10   -0.23
#  75   -1.74   -0.08    0.00    0.33   -0.01    0.00    0.00      -1.50    4.46   -0.20
#  76   -3.55   -0.14    0.00    0.43   -0.03    0.00    0.00      -3.28    3.67   -0.22
#  77   -1.64   -0.12    0.01    0.80   -0.02    0.00    0.00      -0.97    7.54   -0.19
#  78   -0.86   -0.33    0.08    0.91   -0.08    0.00    0.00      -0.27    3.40   -0.28
#  79   -0.05   -0.57    0.63    1.93   -0.06    0.00    0.00       1.88    6.98   -0.21
#  80   -1.76   -0.49    0.16    0.02   -0.11    0.00    0.00      -2.18    0.05   -0.28
#  81   -1.06   -0.43    0.08    0.43   -0.11    0.00    0.00      -1.09    1.06   -0.28
#  82   -2.00   -0.34    0.08    0.60   -0.07    0.00    0.00      -1.74    1.77   -0.22
#  83   -1.59   -0.88    2.37   -0.12   -0.10    0.00    0.00      -0.33   -0.34   -0.28
#  84   -2.22   -0.69    0.50    0.77   -0.09    0.00    0.00      -1.74    2.35   -0.28
#  85   -1.01   -0.19    0.01    0.98   -0.04    0.00    0.00      -0.25    5.48   -0.24
#  86   -2.68   -0.44    0.26    2.20   -0.06    0.00    0.00      -0.72    9.19   -0.27
#  87   -4.74   -0.38    0.17    1.12   -0.07    0.00    0.00      -3.90    4.22   -0.26
#  88    0.16   -0.45    0.56    0.74   -0.05    0.00    0.00       0.97    4.60   -0.28
#  89   -1.77   -0.01    0.00    2.56    0.12    0.00    0.00       0.90   16.24    0.78
#  90   -0.92   -0.15    0.04    0.83   -0.03    0.00    0.00      -0.23    6.96   -0.22
#  91   -0.49   -0.10    0.01    0.18   -0.03    0.00    0.00      -0.43    1.79   -0.28
#  92   -0.03   -0.12    0.02    0.09   -0.03    0.00    0.00      -0.07    0.87   -0.27
#  93   -0.62   -0.47    0.22    0.37   -0.07    0.00    0.00      -0.56    1.43   -0.27
#  94   -0.44   -0.58    0.90    0.15   -0.06    0.00    0.00      -0.02    0.76   -0.28
#  95   -0.05   -0.06    0.00    0.02   -0.01    0.00    0.00      -0.10    0.46   -0.28
#  96    0.01   -0.27    0.11    0.15   -0.04    0.00    0.00      -0.04    0.93   -0.28
#  97   -0.17   -0.85    0.82    0.45   -0.10    0.00    0.00       0.14    1.21   -0.28
#  98   -0.02   -0.29    0.07    0.14   -0.06    0.00    0.00      -0.16    0.66   -0.28
#  99   -0.01   -0.05    0.00    0.02   -0.01    0.00    0.00      -0.05    0.50   -0.28
# 100    0.00   -0.13    0.01    0.04   -0.03    0.00    0.00      -0.11    0.36   -0.28
# 101   -0.01   -0.13    0.01    0.07   -0.04    0.00    0.00      -0.09    0.59   -0.28
# 102   -0.02   -0.43    0.09    0.26   -0.10    0.00    0.00      -0.21    0.70   -0.28
# 103   -0.10   -0.04    0.00    0.07   -0.01    0.00    0.00      -0.08    1.94   -0.22
# 104    0.01   -0.17    0.08    0.56   -0.03    0.00    0.00       0.45    5.07   -0.28
# 105   -1.05   -0.15    0.01    0.88   -0.03    0.00    0.00      -0.34    6.04   -0.20
# 106   -4.01   -0.28    0.05    2.33   -0.05    0.00    0.00      -1.96   10.00   -0.21
# 107   -4.01   -0.28    0.04    2.12   -0.06    0.00    0.00      -2.20    7.23   -0.22
# 108   -4.09   -0.32    0.06    3.56   -0.06    0.00    0.00      -0.85   11.15   -0.19
# 109   -2.39   -0.28    0.03    1.44   -0.09    0.00    0.00      -1.28    4.64   -0.28
# 110   -0.92   -0.09    0.00    0.15   -0.02    0.00    0.00      -0.87    1.98   -0.21
# 111   -1.98   -1.00    1.85    0.59   -0.09    0.00    0.00      -0.62    1.87   -0.28
# 112   -0.19   -0.11    0.01   -0.03   -0.03    0.00    0.00      -0.36   -0.23   -0.28
# 113   -1.31   -0.54    0.23    1.36   -0.08    0.00    0.00      -0.34    3.87   -0.22
# 114   -0.24   -0.26    0.09   -0.07   -0.06    0.00    0.00      -0.54   -0.31   -0.28
# 115   -0.27   -0.12    0.03    0.16   -0.03    0.00    0.00      -0.24    1.48   -0.28
# 116   -0.20   -0.04    0.00    0.07   -0.01    0.00    0.00      -0.18    1.48   -0.24
# 117   -0.62   -0.09    0.01    0.50   -0.02    0.00    0.00      -0.22    5.68   -0.27
# 118   -1.93   -0.66    1.00    1.57   -0.06    0.00    0.00      -0.08    7.26   -0.26

@<TRIPOS>MOLECULE
          T532865        99
  118   121     0     0     0



@<TRIPOS>ATOM
      1 C1         -0.2534   -11.7460    81.4072 C.3        1          -0.1562
      2 C2          0.4148   -10.5731    80.6869 C.3        1          -0.1253
      3 C3          1.1358    -9.6913    81.7083 C.3        1          -0.1165
      4 C4          1.8040    -8.5185    80.9880 C.3        1          -0.1227
      5 C5          2.5251    -7.6367    82.0094 C.3        1           0.0564
      6 O1          3.5190    -8.4079    82.6873 O.3        1          -0.3030
      7 C6          3.8074    -8.0543    83.9674 C.ar       1           0.1574
      8 C7          4.2339    -9.0139    84.8739 C.ar       1          -0.2062
      9 C8          4.5265    -8.6520    86.1746 C.ar       1          -0.0695
     10 C9          4.3946    -7.3345    86.5731 C.ar       1          -0.2130
     11 C10         3.9692    -6.3764    85.6716 C.ar       1          -0.0935
     12 C11         3.6814    -6.7322    84.3681 C.ar       1          -0.1493
     13 C12         4.7145    -6.9424    87.9926 C.3        1           0.1570
     14 O2          4.5026    -5.5389    88.1585 O.3        1          -0.5335
     15 C13         6.1761    -7.2769    88.2971 C.3        1          -0.1461
     16 C14         6.3758    -7.3583    89.8118 C.3        1          -0.1250
     17 C15         5.8900    -8.7179    90.3180 C.3        1          -0.1441
     18 C16         6.0896    -8.7992    91.8328 C.3        1          -0.1437
     19 C17         5.2901    -7.6863    92.5130 C.3        1          -0.0306
     20 N1          5.4818    -7.7643    93.9674 N.4        1          -0.3602
     21 H1          5.4789    -8.7353    94.2418 H          1           0.4095
     22 C18         4.3540    -7.0815    94.6307 C.3        1          -0.0158
     23 C19         4.2067    -7.6508    96.0195 C.3        1          -0.1468
     24 C20         4.9313    -6.7820    97.0645 C.3        1          -0.1314
     25 C21         6.2942    -6.2805    96.5458 C.3        1          -0.1423
     26 C22         7.0472    -7.3443    95.7886 C.3        1          -0.1326
     27 C23         6.7242    -7.2129    94.2853 C.3        1          -0.0383
     28 C24         5.6038   -10.1589    92.3389 C.3        1           0.1723
     29 O3          5.7902   -10.2349    93.7537 O.3        1          -0.5432
     30 C25         6.3912   -11.2551    91.6688 C.ar       1          -0.1904
     31 C26         7.7642   -11.3118    91.8229 C.ar       1          -0.0814
     32 C27         8.4883   -12.3159    91.2100 C.ar       1          -0.1476
     33 C28         7.8369   -13.2681    90.4395 C.ar       1           0.1536
     34 O4          8.5470   -14.2571    89.8359 O.3        1          -0.3091
     35 C29         9.7445   -14.6860    90.4870 C.3        1           0.0579
     36 C30         9.9948   -16.1625    90.1735 C.3        1          -0.1217
     37 C31        11.2769   -16.6218    90.8707 C.3        1          -0.1170
     38 C32        11.5272   -18.0983    90.5570 C.3        1          -0.1249
     39 C33        12.8092   -18.5575    91.2542 C.3        1          -0.1559
     40 C34         6.4593   -13.2091    90.2865 C.ar       1          -0.2032
     41 C35         5.7391   -12.2059    90.9057 C.ar       1          -0.0613
     42 C36         7.0799    -6.1849    87.7214 C.3        1          -0.0260
     43 N2          8.4461    -6.7054    87.5775 N.4        1          -0.3696
     44 H2          8.6608    -7.2755    88.3818 H          1           0.4169
     45 C37         9.3847    -5.5672    87.5401 C.3        1          -0.0117
     46 C38        10.7375    -6.0538    87.9956 C.3        1          -0.1510
     47 C39        11.6360    -6.4218    86.7999 C.3        1          -0.1303
     48 C40        10.8488    -7.1608    85.6988 C.3        1          -0.1394
     49 C41         9.8834    -8.1717    86.2631 C.3        1          -0.1363
     50 C42         8.5025    -7.5045    86.4343 C.3        1          -0.0382
     51 H3         -0.7671   -12.3742    80.6795 H          1           0.0600
     52 H4          0.5045   -12.3343    81.9244 H          1           0.0542
     53 H5         -0.9739   -11.3649    82.1310 H          1           0.0554
     54 H6          1.1352   -10.9543    79.9631 H          1           0.0644
     55 H7         -0.3433    -9.9849    80.1697 H          1           0.0658
     56 H8          0.4154    -9.3103    82.4322 H          1           0.0667
     57 H9          1.8938   -10.2796    82.2254 H          1           0.0646
     58 H10         2.5244    -8.8994    80.2640 H          1           0.0771
     59 H11         1.0459    -7.9301    80.4709 H          1           0.0795
     60 H12         3.0011    -6.8011    81.4962 H          1           0.0695
     61 H13         1.8046    -7.2557    82.7333 H          1           0.0656
     62 H14         4.3367   -10.0431    84.5633 H          1           0.1420
     63 H15         4.8582    -9.3986    86.8809 H          1           0.1333
     64 H16         3.8664    -5.3481    85.9855 H          1           0.1370
     65 H17         3.3541    -5.9825    83.6630 H          1           0.1466
     66 H18         4.0662    -7.4910    88.6760 H          1           0.1264
     67 H19         4.6895    -5.2157    89.0506 H          1           0.3712
     68 H20         6.4313    -8.2354    87.8451 H          1           0.1065
     69 H21         7.4339    -7.2405    90.0457 H          1           0.1018
     70 H22         5.8061    -6.5654    90.2966 H          1           0.0773
     71 H23         4.8320    -8.8358    90.0842 H          1           0.0715
     72 H24         6.4597    -9.5107    89.8334 H          1           0.0998
     73 H25         7.1477    -8.6815    92.0666 H          1           0.1146
     74 H26         5.6362    -6.7177    92.1523 H          1           0.1331
     75 H27         4.2320    -7.8041    92.2792 H          1           0.1442
     76 H28         4.5564    -6.0122    94.6916 H          1           0.1384
     77 H29         3.4378    -7.2510    94.0651 H          1           0.1362
     78 H30         3.1478    -7.7036    96.2725 H          1           0.1103
     79 H31         4.6269    -8.6564    96.0389 H          1           0.0765
     80 H32         4.3058    -5.9230    97.3076 H          1           0.0834
     81 H33         5.0900    -7.3710    97.9678 H          1           0.0829
     82 H34         6.1292    -5.4281    95.8869 H          1           0.0712
     83 H35         6.8975    -5.9570    97.3941 H          1           0.0896
     84 H36         8.1182    -7.2140    95.9447 H          1           0.1120
     85 H37         6.7429    -8.3290    96.1435 H          1           0.0840
     86 H38         7.4967    -7.7260    93.7123 H          1           0.1301
     87 H39         6.7242    -6.1578    94.0119 H          1           0.1320
     88 H40         4.5456   -10.2766    92.1051 H          1           0.1243
     89 H41         6.7103   -10.1379    94.0349 H          1           0.3723
     90 H42         8.2708   -10.5700    92.4226 H          1           0.1246
     91 H43         9.5606   -12.3594    91.3303 H          1           0.1379
     92 H44        10.5852   -14.0912    90.1303 H          1           0.0671
     93 H45         9.6388   -14.5563    91.5641 H          1           0.0649
     94 H46         9.1539   -16.7574    90.5303 H          1           0.0760
     95 H47        10.1005   -16.2923    89.0964 H          1           0.0777
     96 H48        12.1177   -16.0269    90.5138 H          1           0.0665
     97 H49        11.1713   -16.4920    91.9477 H          1           0.0650
     98 H50        10.6864   -18.6931    90.9138 H          1           0.0640
     99 H51        11.6329   -18.2280    89.4798 H          1           0.0651
    100 H52        12.9876   -19.6094    91.0308 H          1           0.0590
    101 H53        13.6500   -17.9627    90.8976 H          1           0.0553
    102 H54        12.7035   -18.4279    92.3313 H          1           0.0543
    103 H55         5.9499   -13.9491    89.6870 H          1           0.1357
    104 H56         4.6662   -12.1619    90.7903 H          1           0.1283
    105 H57         6.7032    -5.8786    86.7456 H          1           0.1289
    106 H58         7.0868    -5.3271    88.3939 H          1           0.1427
    107 H59         9.4560    -5.1829    86.5224 H          1           0.1380
    108 H60         9.0339    -4.7795    88.2070 H          1           0.1284
    109 H61        11.2215    -5.2689    88.5767 H          1           0.1072
    110 H62        10.6061    -6.9329    88.6264 H          1           0.0787
    111 H63        12.0612    -5.5097    86.3813 H          1           0.0826
    112 H64        12.4461    -7.0625    87.1482 H          1           0.0830
    113 H65        10.2921    -6.4301    85.1122 H          1           0.0705
    114 H66        11.5539    -7.6730    85.0442 H          1           0.0905
    115 H67         9.7988    -9.0161    85.5790 H          1           0.1142
    116 H68        10.2442    -8.5196    87.2310 H          1           0.0848
    117 H69         7.7418    -8.2818    86.5072 H          1           0.1295
    118 H70         8.2940    -6.8878    85.5601 H          1           0.1315
@<TRIPOS>BOND
     1    1    2 1
     2    1   51 1
     3    1   52 1
     4    1   53 1
     5    2    3 1
     6    2   54 1
     7    2   55 1
     8    3    4 1
     9    3   56 1
    10    3   57 1
    11    4    5 1
    12    4   58 1
    13    4   59 1
    14    5    6 1
    15    5   60 1
    16    5   61 1
    17    6    7 1
    18    7   12 ar
    19    7    8 ar
    20    8    9 ar
    21    8   62 1
    22    9   10 ar
    23    9   63 1
    24   10   11 ar
    25   10   13 1
    26   11   12 ar
    27   11   64 1
    28   12   65 1
    29   13   14 1
    30   13   15 1
    31   13   66 1
    32   14   67 1
    33   15   16 1
    34   15   42 1
    35   15   68 1
    36   16   17 1
    37   16   69 1
    38   16   70 1
    39   17   18 1
    40   17   71 1
    41   17   72 1
    42   18   19 1
    43   18   28 1
    44   18   73 1
    45   19   20 1
    46   19   74 1
    47   19   75 1
    48   20   21 1
    49   20   27 1
    50   20   22 1
    51   22   23 1
    52   22   76 1
    53   22   77 1
    54   23   24 1
    55   23   78 1
    56   23   79 1
    57   24   25 1
    58   24   80 1
    59   24   81 1
    60   25   26 1
    61   25   82 1
    62   25   83 1
    63   26   27 1
    64   26   84 1
    65   26   85 1
    66   27   86 1
    67   27   87 1
    68   28   29 1
    69   28   30 1
    70   28   88 1
    71   29   89 1
    72   30   41 ar
    73   30   31 ar
    74   31   32 ar
    75   31   90 1
    76   32   33 ar
    77   32   91 1
    78   33   34 1
    79   33   40 ar
    80   34   35 1
    81   35   36 1
    82   35   92 1
    83   35   93 1
    84   36   37 1
    85   36   94 1
    86   36   95 1
    87   37   38 1
    88   37   96 1
    89   37   97 1
    90   38   39 1
    91   38   98 1
    92   38   99 1
    93   39  100 1
    94   39  101 1
    95   39  102 1
    96   40   41 ar
    97   40  103 1
    98   41  104 1
    99   42   43 1
   100   42  105 1
   101   42  106 1
   102   43   44 1
   103   43   50 1
   104   43   45 1
   105   45   46 1
   106   45  107 1
   107   45  108 1
   108   46   47 1
   109   46  109 1
   110   46  110 1
   111   47   48 1
   112   47  111 1
   113   47  112 1
   114   48   49 1
   115   48  113 1
   116   48  114 1
   117   49   50 1
   118   49  115 1
   119   49  116 1
   120   50  117 1
   121   50  118 1
##########                 Name:              T528097
##########          Protonation:                   13
##########               SMILES:   COc1nc2c(nccc2[C@H](O)C[NH+]3CC[C@@H](CC3)[NH2+]Cc4nc5c(cccc5cc4)O)cc1
##########            Long Name:   idin-4-yl)ethyl]piperidin-1-ium-4-yl]-[(8-hydroxy-2-quinolyl)methyl]ammonium
##########          FlexRecCode: 1
##########               Number:                  130
##########   Ligand Source File: /raidb/db2/rgc/tcams/tcams-0000346.db2.gz
##########           GlobalRank: 137
##########                 Rank:                    1
##########               Setnum:                  245
##########             Matchnum:                 4373
##########                Cloud:                    1
##########        Electrostatic:           -43.867802
##########        Van der Waals:           -24.585579
##########  Ligand Polar Desolv:             3.202188
########## Ligand Apolar Desolv:            -2.090405
##########      Internal Energy:             0.000000
##########      Receptor Energy: 0.0
########## Receptor Desolvation:             0.000000
########## Receptor Hydrophobic:             0.000000
##########         Total Energy: -67.34
##########        Ligand Charge:             2.000000
##########            Arbitrary:    +999.9990
##########     heavy atom count:   34
##########           pose count:    1
##########        Ligand Energy:             0.000000
# num electro vdwattr vdwrepu polsolv apolsol rdesolv rhydroe totalscore fullpol fullapo
#   1   -0.06   -0.57    0.07    0.09    0.01    0.00    0.00      -0.46    0.31    0.03
#   2    0.84   -1.55    0.48   -2.79    0.34    0.00    0.00      -2.68   -7.28    0.90
#   3   -3.51   -1.86    0.48    2.84   -0.28    0.00    0.00      -2.34    6.70   -0.66
#   4    3.50   -3.27    1.82   -1.59   -0.24    0.00    0.00       0.23   -3.08   -0.46
#   5   -0.06   -2.92    1.17   -0.54   -0.26    0.00    0.00      -2.61   -1.01   -0.48
#   6   -0.58   -2.16    0.75   -0.19   -0.33    0.00    0.00      -2.50   -0.42   -0.73
#   7    5.20   -2.58    1.02   -4.12    0.98    0.00    0.00       0.51   -8.36    1.99
#   8   -1.52   -1.65    0.25    0.72   -0.41    0.00    0.00      -2.61    1.71   -0.97
#   9    1.28   -1.11    0.19   -1.04   -0.14    0.00    0.00      -0.82   -3.31   -0.44
#  10    0.25   -1.85    1.86   -0.34   -0.09    0.00    0.00      -0.16   -1.34   -0.35
#  11   -0.70   -0.74    0.27    1.20   -0.03    0.00    0.00       0.00    5.90   -0.13
#  12    0.69   -1.48    0.76   -4.96    0.37    0.00    0.00      -4.63  -21.41    1.58
#  13    0.83   -0.40    0.03   -0.13   -0.07    0.00    0.00       0.27   -0.60   -0.32
#  14    7.01   -0.42    0.03   -3.38    0.05    0.00    0.00       3.29  -17.56    0.27
#  15   -5.62   -0.01    0.00    1.65    0.03    0.00    0.00      -3.94   23.60    0.49
#  16    0.06   -0.98    0.39   -0.02   -0.10    0.00    0.00      -0.65   -0.09   -0.38
#  17    3.36   -0.46    0.04   -1.89   -0.05    0.00    0.00       1.00   -8.61   -0.24
#  18   -0.19   -0.20    0.00    0.26   -0.03    0.00    0.00      -0.15    2.12   -0.23
#  19    1.48   -0.11    0.00   -0.59   -0.01    0.00    0.00       0.76   -9.09   -0.21
#  20    0.11   -0.18    0.00   -0.15   -0.04    0.00    0.00      -0.26   -1.45   -0.37
#  21    4.27   -0.19    0.00   -2.34    0.06    0.00    0.00       1.81  -25.32    0.63
#  22   -3.01    0.00    0.00    0.74    0.02    0.00    0.00      -2.25   22.42    0.56
#  23   -2.18    0.00    0.00    1.16    0.03    0.00    0.00      -1.00   24.84    0.56
#  24   -0.67   -0.31    0.02    0.65   -0.07    0.00    0.00      -0.38    3.66   -0.41
#  25   -0.88   -0.94    0.17    1.24   -0.18    0.00    0.00      -0.59    4.77   -0.70
#  26    4.14   -1.37    0.18   -1.63   -0.17    0.00    0.00       1.14   -4.20   -0.45
#  27    0.71   -2.45    1.07   -1.21   -0.20    0.00    0.00      -2.08   -2.76   -0.46
#  28    0.29   -1.89    0.49   -1.00   -0.16    0.00    0.00      -2.27   -2.54   -0.40
#  29    0.44   -3.01    1.60   -1.12   -0.22    0.00    0.00      -2.32   -2.29   -0.46
#  30    0.18   -3.04    1.79   -1.13   -0.23    0.00    0.00      -2.43   -2.30   -0.47
#  31    0.29   -1.33    0.16   -1.11   -0.18    0.00    0.00      -2.17   -2.83   -0.46
#  32   -0.41   -1.00    0.18    0.48   -0.09    0.00    0.00      -0.85    1.66   -0.31
#  33    1.12   -0.50    0.05   -1.51    0.19    0.00    0.00      -0.63   -8.97    1.16
#  34   -0.39   -1.46    0.54    0.36   -0.21    0.00    0.00      -1.16    1.29   -0.73
#  35    1.78   -1.32    0.65   -2.87    0.40    0.00    0.00      -1.36  -13.32    1.85
#  36   -0.04   -2.71    4.64    0.81   -0.24    0.00    0.00       2.46    2.46   -0.73
#  37    0.75   -2.08    1.69   -3.71    0.85    0.00    0.00      -2.51  -11.29    2.57
#  38   -0.08   -0.13    0.01    0.68   -0.04    0.00    0.00       0.44    4.45   -0.28
#  39   -0.10   -0.08    0.00    0.18   -0.02    0.00    0.00      -0.01    2.52   -0.28
#  40   -0.07   -0.27    0.07    0.73   -0.07    0.00    0.00       0.39    2.97   -0.28
#  41   -4.76   -1.56    3.55    1.30   -0.16    0.00    0.00      -1.63    2.28   -0.28
#  42   -4.41   -1.01    0.90    0.84   -0.16    0.00    0.00      -3.85    1.44   -0.28
#  43   -2.64   -0.36    0.05    1.34   -0.10    0.00    0.00      -1.72    3.60   -0.28
#  44   -2.23   -0.15    0.01    1.07   -0.03    0.00    0.00      -1.34    8.04   -0.22
#  45   -0.15   -0.22    0.06    0.86   -0.03    0.00    0.00       0.53    5.69   -0.21
#  46   -2.32   -0.01    0.00    2.64    0.15    0.00    0.00       0.46   17.14    1.00
#  47   -3.45   -0.12    0.01    0.68   -0.03    0.00    0.00      -2.91    6.03   -0.28
#  48   -3.98   -0.17    0.03    1.20   -0.04    0.00    0.00      -2.97    7.87   -0.28
#  49   -5.86   -0.66    0.73    1.96   -0.07    0.00    0.00      -3.89    7.63   -0.28
#  50   -5.37   -0.55    0.35    2.18   -0.08    0.00    0.00      -3.48    7.26   -0.28
#  51   -3.22   -0.20    0.03    1.20   -0.05    0.00    0.00      -2.24    6.27   -0.28
#  52   -1.62   -0.12    0.01    0.90   -0.03    0.00    0.00      -0.85    7.67   -0.28
#  53   -2.60   -0.08    0.00    0.83   -0.02    0.00    0.00      -1.86   10.23   -0.28
#  54   -0.73   -0.02    0.00    0.24   -0.01    0.00    0.00      -0.51    8.35   -0.22
#  55   -0.75   -0.03    0.00    0.25   -0.01    0.00    0.00      -0.53    8.29   -0.28
#  56   -0.91   -0.04    0.00    0.27   -0.01    0.00    0.00      -0.70    5.92   -0.22
#  57   -2.11   -0.07    0.00    0.51   -0.02    0.00    0.00      -1.69    8.21   -0.28
#  58   -2.37   -0.09    0.00    0.91   -0.02    0.00    0.00      -1.57   12.18   -0.22
#  59   -0.91   -0.11    0.01    0.85   -0.03    0.00    0.00      -0.19    7.96   -0.28
#  60   -4.65   -0.28    0.03    3.53   -0.10    0.00    0.00      -1.47   10.34   -0.28
#  61   -5.36   -1.21    2.40    1.75   -0.12    0.00    0.00      -2.54    4.15   -0.28
#  62   -0.63   -0.86    0.46    1.46   -0.15    0.00    0.00       0.28    2.76   -0.28
#  63   -0.32   -1.24    1.84    0.95   -0.15    0.00    0.00       1.08    1.77   -0.28
#  64   -0.31   -0.29    0.05    0.40   -0.08    0.00    0.00      -0.22    1.46   -0.28
#  65   -0.76   -0.01    0.00    0.63    0.09    0.00    0.00      -0.04    8.81    1.22

@<TRIPOS>MOLECULE
          T528097        13
   65    69     0     0     0



@<TRIPOS>ATOM
      1 C1          0.1287    -9.4804    92.3155 C.3        1           0.0397
      2 O1         -0.3956    -9.0919    93.5867 O.3        1          -0.2908
      3 C2          0.4930    -8.6486    94.5098 C.ar       1           0.3748
      4 C3          0.0312    -8.2607    95.7743 C.ar       1          -0.1585
      5 C4          0.9119    -7.8132    96.7123 C.ar       1           0.0028
      6 C5          2.2802    -7.7548    96.3726 C.ar       1           0.0559
      7 N1          3.1900    -7.3254    97.2501 N.ar       1          -0.4262
      8 C6          4.4627    -7.2695    96.9399 C.ar       1           0.1203
      9 C7          4.9255    -7.6542    95.6832 C.ar       1          -0.1164
     10 C8          4.0458    -8.1029    94.7401 C.ar       1          -0.0968
     11 C9          4.5244    -8.5248    93.3747 C.3        1           0.1464
     12 O2          5.4512    -9.6044    93.5073 O.3        1          -0.5467
     13 C10         5.2127    -7.3433    92.6881 C.3        1          -0.0413
     14 N2          6.0789    -7.8400    91.6107 N.4        1          -0.3838
     15 H1          6.5467    -8.6800    91.9169 H          1           0.4306
     16 C11         7.0791    -6.8182    91.2787 C.3        1          -0.0020
     17 C12         8.0343    -7.3611    90.2137 C.3        1          -0.1699
     18 C13         7.2368    -7.7242    88.9577 C.3        1           0.0142
     19 C14         6.1483    -8.7348    89.3306 C.3        1          -0.1709
     20 C15         5.2632    -8.1393    90.4277 C.3        1          -0.0089
     21 N3          8.1362    -8.3169    87.9589 N.4        1          -0.5039
     22 H2          8.7929    -8.9291    88.4192 H          1           0.4420
     23 H3          7.5953    -8.8451    87.2908 H          1           0.4302
     24 C16         8.8668    -7.2491    87.2631 C.3        1           0.0571
     25 C17         7.8857    -6.3348    86.5758 C.ar       1           0.0628
     26 C18         8.0592    -4.9559    86.6754 C.ar       1          -0.1688
     27 C19         7.1801    -4.1122    86.0586 C.ar       1          -0.0342
     28 C20         6.1142    -4.6781    85.3334 C.ar       1          -0.0646
     29 C21         5.1713    -3.8738    84.6727 C.ar       1          -0.1121
     30 C22         4.1536    -4.4565    83.9804 C.ar       1          -0.0670
     31 C23         4.0319    -5.8420    83.9173 C.ar       1          -0.1161
     32 C24         4.9294    -6.6565    84.5470 C.ar       1           0.1394
     33 O3          4.7944    -8.0062    84.4749 O.3        1          -0.4812
     34 C25         5.9971    -6.0881    85.2732 C.ar       1           0.0983
     35 N4          6.8947    -6.8575    85.8955 N.ar       1          -0.4273
     36 C26         2.6794    -8.1616    95.0772 C.ar       1           0.1334
     37 N5          1.7704    -8.5973    94.1997 N.ar       1          -0.5619
     38 H4         -0.6862    -9.8139    91.6730 H          1           0.0502
     39 H5          0.6303    -8.6297    91.8540 H          1           0.0607
     40 H6          0.8419   -10.2937    92.4497 H          1           0.1051
     41 H7         -1.0223    -8.3162    96.0051 H          1           0.1632
     42 H8          0.5713    -7.5103    97.6914 H          1           0.1674
     43 H9          5.1694    -6.9163    97.6762 H          1           0.1761
     44 H10         5.9797    -7.5972    95.4550 H          1           0.1474
     45 H11         3.6734    -8.8479    92.7752 H          1           0.1414
     46 H12         6.2353    -9.3877    94.0302 H          1           0.3912
     47 H13         4.4586    -6.6766    92.2699 H          1           0.1480
     48 H14         5.8143    -6.7998    93.4167 H          1           0.1435
     49 H15         6.5768    -5.9296    90.8966 H          1           0.1429
     50 H16         7.6437    -6.5586    92.1741 H          1           0.1524
     51 H17         8.7750    -6.6004    89.9673 H          1           0.1397
     52 H18         8.5373    -8.2498    90.5949 H          1           0.1142
     53 H19         6.7751    -6.8263    88.5470 H          1           0.1599
     54 H20         5.5409    -8.9560    88.4529 H          1           0.1386
     55 H21         6.6122    -9.6521    89.6935 H          1           0.1165
     56 H22         4.4862    -8.8558    90.6945 H          1           0.1529
     57 H23         4.8006    -7.2217    90.0642 H          1           0.1432
     58 H24         9.4510    -6.6786    87.9851 H          1           0.1480
     59 H25         9.5341    -7.6889    86.5220 H          1           0.1515
     60 H26         8.8879    -4.5545    87.2400 H          1           0.1445
     61 H27         7.2990    -3.0409    86.1253 H          1           0.1564
     62 H28         5.2529    -2.7975    84.7135 H          1           0.1469
     63 H29         3.4303    -3.8349    83.4735 H          1           0.1483
     64 H30         3.2152    -6.2795    83.3623 H          1           0.1508
     65 H31         4.0327    -8.2981    83.9555 H          1           0.4002
@<TRIPOS>BOND
     1    1    2 1
     2    1   38 1
     3    1   39 1
     4    1   40 1
     5    2    3 1
     6    3   37 ar
     7    3    4 ar
     8    4    5 ar
     9    4   41 1
    10    5    6 ar
    11    5   42 1
    12    6   36 ar
    13    6    7 ar
    14    7    8 ar
    15    8    9 ar
    16    8   43 1
    17    9   10 ar
    18    9   44 1
    19   10   11 1
    20   10   36 ar
    21   11   12 1
    22   11   13 1
    23   11   45 1
    24   12   46 1
    25   13   14 1
    26   13   47 1
    27   13   48 1
    28   14   15 1
    29   14   20 1
    30   14   16 1
    31   16   17 1
    32   16   49 1
    33   16   50 1
    34   17   18 1
    35   17   51 1
    36   17   52 1
    37   18   19 1
    38   18   21 1
    39   18   53 1
    40   19   20 1
    41   19   54 1
    42   19   55 1
    43   20   56 1
    44   20   57 1
    45   21   22 1
    46   21   23 1
    47   21   24 1
    48   24   25 1
    49   24   58 1
    50   24   59 1
    51   25   35 ar
    52   25   26 ar
    53   26   27 ar
    54   26   60 1
    55   27   28 ar
    56   27   61 1
    57   28   34 ar
    58   28   29 ar
    59   29   30 ar
    60   29   62 1
    61   30   31 ar
    62   30   63 1
    63   31   32 ar
    64   31   64 1
    65   32   33 1
    66   32   34 ar
    67   33   65 1
    68   34   35 ar
    69   36   37 ar
##########                 Name:              T537783
##########          Protonation:                   96
##########               SMILES:   (c(cc1[C@H]2C[C@H]2C(=O)NCCCCC[NH+]3CC[C@H](C3)NC(=O)Nc4cc(cc(c4)Cl)Cl)Cl)Cl
##########            Long Name:   rophenyl)carbamoylamino]pyrrolidin-1-ium-1-yl]pentyl]cyclopropanecarboxamide
##########          FlexRecCode: 1
##########               Number:                  305
##########   Ligand Source File: /raidb/db2/rgc/tcams/tcams-0001686.db2.gz
##########           GlobalRank: 138
##########                 Rank:                    1
##########               Setnum:                   53
##########             Matchnum:                  154
##########                Cloud:                    1
##########        Electrostatic:           -49.285484
##########        Van der Waals:           -24.129375
##########  Ligand Polar Desolv:             9.343752
########## Ligand Apolar Desolv:            -3.260350
##########      Internal Energy:             0.000000
##########      Receptor Energy: 0.0
########## Receptor Desolvation:             0.000000
########## Receptor Hydrophobic:             0.000000
##########         Total Energy: -67.33
##########        Ligand Charge:             1.000000
##########            Arbitrary:    +999.9990
##########     heavy atom count:   36
##########           pose count:    1
##########        Ligand Energy:             0.000000
# num electro vdwattr vdwrepu polsolv apolsol rdesolv rhydroe totalscore fullpol fullapo
#   1    0.24   -6.43    5.85   -0.23   -0.59    0.00    0.00      -1.16   -0.38   -0.99
#   2    0.03   -1.76    0.39   -0.10   -0.16    0.00    0.00      -1.60   -0.18   -0.30
#   3    1.18   -1.82    0.59   -0.41   -0.18    0.00    0.00      -0.63   -0.90   -0.39
#   4   -1.64   -1.44    0.20    0.82   -0.26    0.00    0.00      -2.32    2.16   -0.68
#   5    8.92   -1.30    0.10   -4.26    0.72    0.00    0.00       4.18  -10.09    1.70
#   6  -11.86   -1.18    0.12    3.80   -0.75    0.00    0.00      -9.86   10.61   -2.09
#   7    8.30   -0.97    0.11   -1.89    0.10    0.00    0.00       5.65   -6.28    0.32
#   8   17.25   -1.46    0.24   -6.58    0.91    0.00    0.00      10.35  -15.50    2.14
#   9   -5.48   -1.23    0.49    1.34   -0.14    0.00    0.00      -5.02    3.11   -0.33
#  10    6.64   -2.14    0.92   -2.32   -0.15    0.00    0.00       2.95   -4.20   -0.28
#  11    0.52   -1.66    0.36    0.15   -0.22    0.00    0.00      -0.85    0.31   -0.45
#  12   14.75   -1.53    0.66   -4.51    0.17    0.00    0.00       9.53  -12.24    0.45
#  13  -22.83   -0.08    0.01    5.61    0.18    0.00    0.00     -17.10   17.03    0.56
#  14    0.23   -0.66    0.07    0.08   -0.09    0.00    0.00      -0.38    0.28   -0.32
#  15    2.41   -0.38    0.02   -0.86   -0.04    0.00    0.00       1.15   -4.21   -0.21
#  16    2.27   -0.69    0.11   -0.75   -0.06    0.00    0.00       0.87   -2.81   -0.22
#  17    1.13   -0.27    0.01   -0.40   -0.04    0.00    0.00       0.43   -2.30   -0.22
#  18   -0.51   -0.42    0.03    0.32   -0.09    0.00    0.00      -0.67    1.50   -0.43
#  19   11.71   -0.92    0.12   -2.25    0.57    0.00    0.00       9.23   -9.09    2.32
#  20   -7.99   -1.24    0.33    1.27   -0.17    0.00    0.00      -7.79    4.61   -0.63
#  21    2.38   -1.09    0.18   -0.72    0.08    0.00    0.00       0.84   -2.50    0.29
#  22    5.13   -0.90    0.16   -0.63   -0.14    0.00    0.00       3.62   -1.91   -0.41
#  23    2.99   -0.52    0.03   -0.46   -0.13    0.00    0.00       1.92   -1.51   -0.41
#  24    1.68   -0.47    0.04   -0.27   -0.09    0.00    0.00       0.89   -1.18   -0.39
#  25    0.49   -0.32    0.01   -0.02   -0.04    0.00    0.00       0.12   -0.16   -0.30
#  26    0.57   -0.40    0.02   -0.02   -0.04    0.00    0.00       0.12   -0.14   -0.28
#  27    0.31   -0.23    0.01   -0.01   -0.03    0.00    0.00       0.04   -0.13   -0.30
#  28    0.38   -0.94    0.14   -0.02   -0.15    0.00    0.00      -0.58   -0.11   -0.95
#  29    0.14   -0.12    0.00   -0.01   -0.02    0.00    0.00      -0.01   -0.14   -0.30
#  30    0.04   -0.32    0.02   -0.01   -0.07    0.00    0.00      -0.34   -0.08   -0.95
#  31    0.45   -0.10    0.00   -0.02   -0.02    0.00    0.00       0.30   -0.44   -0.46
#  32    0.66   -0.19    0.00   -0.05   -0.04    0.00    0.00       0.40   -0.59   -0.46
#  33    0.55   -0.64    0.10    0.15   -0.12    0.00    0.00       0.04    0.55   -0.45
#  34    0.54   -1.53    0.26   -0.45   -0.16    0.00    0.00      -1.34   -1.24   -0.45
#  35    0.01   -1.75    0.32   -0.07   -0.12    0.00    0.00      -1.60   -0.16   -0.30
#  36    0.09   -8.10   12.89   -0.17   -0.39    0.00    0.00       4.31   -0.43   -0.99
#  37    0.80   -1.59    0.17   -0.45   -0.24    0.00    0.00      -1.31   -0.85   -0.45
#  38   -2.36   -0.37    0.06    0.35   -0.08    0.00    0.00      -2.40    0.91   -0.22
#  39   -6.15   -0.02    0.00    3.04    0.20    0.00    0.00      -2.93    8.79    0.59
#  40   -8.62   -0.05    0.00    3.80    0.19    0.00    0.00      -4.68   11.61    0.58
#  41   -5.91   -0.77    1.13    0.72   -0.10    0.00    0.00      -4.92    1.93   -0.26
#  42   -3.43   -1.27    2.29    1.26   -0.14    0.00    0.00      -1.28    2.50   -0.28
#  43   -6.33   -1.27    1.75    0.52   -0.16    0.00    0.00      -5.50    0.88   -0.28
#  44   -4.32   -0.46    0.10    1.94   -0.08    0.00    0.00      -2.82    5.16   -0.22
#  45   -5.88   -0.90    0.40    2.73   -0.16    0.00    0.00      -3.81    4.90   -0.28
#  46   -2.92   -0.13    0.00    0.65   -0.03    0.00    0.00      -2.43    5.47   -0.28
#  47   -3.07   -0.41    0.19    1.37   -0.08    0.00    0.00      -2.01    4.92   -0.28
#  48   -1.17   -0.07    0.00    0.21   -0.01    0.00    0.00      -1.05    3.17   -0.23
#  49   -0.91   -0.08    0.00    0.26   -0.02    0.00    0.00      -0.75    3.26   -0.28
#  50   -1.40   -0.54    0.43    0.43   -0.08    0.00    0.00      -1.16    1.44   -0.28
#  51   -2.63   -0.34    0.11    0.35   -0.07    0.00    0.00      -2.58    1.43   -0.28
#  52   -0.64   -0.04    0.00    0.08   -0.01    0.00    0.00      -0.62    1.82   -0.28
#  53   -0.28   -0.06    0.00    0.10   -0.02    0.00    0.00      -0.25    1.79   -0.28
#  54   -0.20   -0.06    0.00    0.01   -0.01    0.00    0.00      -0.26    0.23   -0.28
#  55   -0.20   -0.29    0.09    0.05   -0.06    0.00    0.00      -0.42    0.24   -0.28
#  56  -10.24   -0.01    0.00    1.18    0.10    0.00    0.00      -8.97    7.09    0.57
#  57   -5.27   -0.65    0.36    1.11   -0.11    0.00    0.00      -4.56    2.88   -0.28
#  58   -1.52   -0.17    0.03    0.10   -0.03    0.00    0.00      -1.59    0.75   -0.22
#  59   -3.05   -0.22    0.02    0.54   -0.07    0.00    0.00      -2.78    2.16   -0.28
#  60   -2.96   -0.21    0.04    0.38   -0.05    0.00    0.00      -2.81    2.02   -0.28
#  61   -3.11   -0.16    0.02    0.10   -0.03    0.00    0.00      -3.18    0.56   -0.19
#  62   -0.31   -0.01    0.00    0.02   -0.01    0.00    0.00      -0.31    0.83   -0.28
#  63   -0.71   -0.05    0.00    0.10   -0.02    0.00    0.00      -0.68    1.66   -0.28
#  64   -3.67   -0.14    0.01    0.74   -0.03    0.00    0.00      -3.09    6.11   -0.28
#  65   -2.75   -0.12    0.00    0.64   -0.03    0.00    0.00      -2.26    6.19   -0.26
#  66   -0.31   -0.33    0.10    0.60   -0.06    0.00    0.00      -0.01    2.59   -0.28
#  67   -1.45   -0.37    0.04    0.35   -0.14    0.00    0.00      -1.56    0.73   -0.28

@<TRIPOS>MOLECULE
          T537783        96
   67    70     0     0     0



@<TRIPOS>ATOM
      1 Cl1         9.6620   -12.1069    99.1303 Cl         1          -0.0423
      2 C1          8.5926   -11.4282    97.9431 C.ar       1          -0.0039
      3 C2          8.2694   -10.0850    97.9922 C.ar       1          -0.1089
      4 C3          7.4141    -9.5427    97.0423 C.ar       1           0.1809
      5 N1          7.0857    -8.1832    97.0896 N.am       1          -0.6749
      6 C4          6.8024    -7.5184    95.9519 C.2        1           0.7108
      7 O1          6.8321    -8.0998    94.8845 O.2        1          -0.5546
      8 N2          6.4861    -6.2090    95.9975 N.am       1          -0.7338
      9 C5          6.1782    -5.4866    94.7609 C.3        1           0.1516
     10 C6          5.8016    -4.0425    95.0697 C.3        1          -0.1588
     11 C7          4.3818    -3.8734    94.5177 C.3        1          -0.0133
     12 N3          4.2801    -4.9149    93.4657 N.4        1          -0.3870
     13 H1          4.7723    -4.6295    92.6323 H          1           0.4305
     14 C8          2.8737    -5.2105    93.1616 C.3        1          -0.0093
     15 C9          2.8018    -6.2858    92.0756 C.3        1          -0.1481
     16 C10         3.5016    -5.7819    90.8119 C.3        1          -0.1150
     17 C11         3.4298    -6.8572    89.7259 C.3        1          -0.1323
     18 C12         4.1297    -6.3531    88.4621 C.3        1           0.1192
     19 N4          5.5324    -6.0582    88.7654 N.am       1          -0.7320
     20 C13         6.3489    -5.5978    87.7970 C.2        1           0.5371
     21 O2          5.9225    -5.4277    86.6744 O.2        1          -0.5130
     22 C14         7.7916    -5.2943    88.1089 C.3        1          -0.1851
     23 C15         8.8592    -5.9922    87.2639 C.3        1          -0.1446
     24 C16         8.6346    -6.4175    88.7163 C.3        1          -0.0804
     25 C17         7.9585    -7.7428    88.9566 C.ar       1          -0.0358
     26 C18         7.3355    -7.9913    90.1654 C.ar       1          -0.0365
     27 C19         6.7149    -9.2075    90.3864 C.ar       1          -0.0340
     28 Cl2         5.9319    -9.5199    91.9039 Cl         1          -0.0567
     29 C20         6.7183   -10.1757    89.3962 C.ar       1          -0.0290
     30 Cl3         5.9394   -11.7024    89.6717 Cl         1          -0.0526
     31 C21         7.3421    -9.9252    88.1875 C.ar       1          -0.1052
     32 C22         7.9570    -8.7070    87.9662 C.ar       1          -0.0936
     33 C23         4.9416    -6.0830    94.0900 C.3        1          -0.0190
     34 C24         6.8854   -10.3516    96.0452 C.ar       1          -0.1318
     35 C25         7.2116   -11.6942    96.0005 C.ar       1          -0.0026
     36 Cl4         6.5512   -12.7061    94.7542 Cl         1          -0.0402
     37 C26         8.0689   -12.2309    96.9450 C.ar       1          -0.1123
     38 H2          8.6817    -9.4580    98.7691 H          1           0.1516
     39 H3          7.0619    -7.7193    97.9411 H          1           0.4148
     40 H4          6.4624    -5.7452    96.8490 H          1           0.4071
     41 H5          7.0304    -5.5180    94.0821 H          1           0.1310
     42 H6          5.8129    -3.8698    96.1459 H          1           0.1029
     43 H7          6.4866    -3.3572    94.5705 H          1           0.1205
     44 H8          3.6439    -4.0475    95.3008 H          1           0.1365
     45 H9          4.2551    -2.8804    94.0862 H          1           0.1373
     46 H10         2.3750    -5.5694    94.0619 H          1           0.1327
     47 H11         2.3799    -4.3048    92.8094 H          1           0.1311
     48 H12         3.2954    -7.1916    92.4278 H          1           0.0885
     49 H13         1.7581    -6.5050    91.8500 H          1           0.0892
     50 H14         3.0080    -4.8761    90.4597 H          1           0.0789
     51 H15         4.5453    -5.5626    91.0375 H          1           0.0782
     52 H16         3.9235    -7.7628    90.0780 H          1           0.0741
     53 H17         2.3861    -7.0764    89.5002 H          1           0.0744
     54 H18         4.0786    -7.1192    87.6884 H          1           0.0690
     55 H19         3.6361    -5.4474    88.1100 H          1           0.0689
     56 H20         5.8734    -6.1944    89.6632 H          1           0.4010
     57 H21         7.9970    -4.2761    88.4393 H          1           0.1311
     58 H22         8.5180    -6.6708    86.4821 H          1           0.1047
     59 H23         9.7671    -5.4329    87.0379 H          1           0.1164
     60 H24         9.3947    -6.1382    89.4458 H          1           0.1310
     61 H25         7.3335    -7.2359    90.9373 H          1           0.1298
     62 H26         7.3453   -10.6800    87.4149 H          1           0.1409
     63 H27         8.4399    -8.5100    87.0205 H          1           0.1352
     64 H28         5.2311    -6.8096    93.3309 H          1           0.1461
     65 H29         4.2877    -6.5416    94.8317 H          1           0.1378
     66 H30         6.2196    -9.9323    95.3055 H          1           0.1452
     67 H31         8.3264   -13.2790    96.9055 H          1           0.1506
@<TRIPOS>BOND
     1    1    2 1
     2    2   37 ar
     3    2    3 ar
     4    3    4 ar
     5    3   38 1
     6    4    5 1
     7    4   34 ar
     8    5    6 am
     9    5   39 1
    10    6    7 2
    11    6    8 am
    12    8    9 1
    13    8   40 1
    14    9   33 1
    15    9   10 1
    16    9   41 1
    17   10   11 1
    18   10   42 1
    19   10   43 1
    20   11   12 1
    21   11   44 1
    22   11   45 1
    23   12   13 1
    24   12   14 1
    25   12   33 1
    26   14   15 1
    27   14   46 1
    28   14   47 1
    29   15   16 1
    30   15   48 1
    31   15   49 1
    32   16   17 1
    33   16   50 1
    34   16   51 1
    35   17   18 1
    36   17   52 1
    37   17   53 1
    38   18   19 1
    39   18   54 1
    40   18   55 1
    41   19   20 am
    42   19   56 1
    43   20   21 2
    44   20   22 1
    45   22   24 1
    46   22   23 1
    47   22   57 1
    48   23   24 1
    49   23   58 1
    50   23   59 1
    51   24   25 1
    52   24   60 1
    53   25   32 ar
    54   25   26 ar
    55   26   27 ar
    56   26   61 1
    57   27   28 1
    58   27   29 ar
    59   29   30 1
    60   29   31 ar
    61   31   32 ar
    62   31   62 1
    63   32   63 1
    64   33   64 1
    65   33   65 1
    66   34   35 ar
    67   34   66 1
    68   35   36 1
    69   35   37 ar
    70   37   67 1
##########                 Name:              T527398
##########          Protonation:                   18
##########               SMILES:   [NH2+]1)Cc2cccc(c2)c3cc(ccc3F)CNC(=O)c4cccc(c4)C[NH+]5CCN(CC5)C/C=C/c6ccccc6
##########            Long Name:   [3-[[(3S)-3-methylpiperazin-4-ium-1-yl]methyl]phenyl]phenyl]methyl]benzamide
##########          FlexRecCode: 1
##########               Number:                  197
##########   Ligand Source File: /raidb/db2/rgc/tcams/tcams-0000274.db2.gz
##########           GlobalRank: 140
##########                 Rank:                    1
##########               Setnum:                   12
##########             Matchnum:                  165
##########                Cloud:                    1
##########        Electrostatic:           -43.463989
##########        Van der Waals:           -30.968023
##########  Ligand Polar Desolv:            10.298399
########## Ligand Apolar Desolv:            -3.173786
##########      Internal Energy:             0.000000
##########      Receptor Energy: 0.0
########## Receptor Desolvation:             0.000000
########## Receptor Hydrophobic:             0.000000
##########         Total Energy: -67.31
##########        Ligand Charge:             2.000000
##########            Arbitrary:    +999.9990
##########     heavy atom count:   47
##########           pose count:    1
##########        Ligand Energy:             0.000000
# num electro vdwattr vdwrepu polsolv apolsol rdesolv rhydroe totalscore fullpol fullapo
#   1    4.39   -1.02    0.14   -2.17   -0.07    0.00    0.00       1.27   -5.21   -0.18
#   2   -0.78   -0.71    0.06    0.89   -0.12    0.00    0.00      -0.66    2.51   -0.35
#   3   -0.75   -1.16    0.22    0.21   -0.17    0.00    0.00      -1.64    0.49   -0.38
#   4   11.42   -1.23    0.09   -5.77    1.14    0.00    0.00       5.66  -13.73    2.72
#   5   -1.81   -0.50    0.02    0.62   -0.11    0.00    0.00      -1.79    2.14   -0.39
#   6    1.30   -0.93    0.08   -0.39   -0.11    0.00    0.00      -0.05   -1.26   -0.34
#   7    1.48   -1.39    0.21   -0.75   -0.18    0.00    0.00      -0.63   -1.86   -0.45
#   8    1.68   -1.42    0.18   -0.99   -0.21    0.00    0.00      -0.76   -2.23   -0.47
#   9    1.04   -1.21    0.10   -0.71   -0.16    0.00    0.00      -0.94   -1.92   -0.44
#  10    0.35   -1.27    0.26   -0.38   -0.12    0.00    0.00      -1.16   -1.22   -0.37
#  11    0.61   -1.39    0.70   -0.46   -0.08    0.00    0.00      -0.62   -1.69   -0.31
#  12    0.30   -1.39    0.34   -0.43   -0.11    0.00    0.00      -1.29   -1.46   -0.38
#  13    0.37   -0.90    0.15   -0.26   -0.10    0.00    0.00      -0.74   -1.11   -0.43
#  14    0.73   -0.70    0.06   -0.42   -0.09    0.00    0.00      -0.40   -1.79   -0.37
#  15   -0.88   -0.23    0.01    0.37   -0.06    0.00    0.00      -0.79    2.73   -0.44
#  16    3.79   -0.22    0.01   -1.19    0.22    0.00    0.00       2.62  -12.37    2.32
#  17   -2.51   -0.12    0.00    0.43   -0.03    0.00    0.00      -2.23    8.71   -0.65
#  18    1.60   -0.08    0.00   -0.31    0.02    0.00    0.00       1.23   -7.29    0.39
#  19    0.59   -0.11    0.00   -0.18   -0.02    0.00    0.00       0.28   -3.72   -0.41
#  20    0.14   -0.12    0.00   -0.11   -0.03    0.00    0.00      -0.11   -1.72   -0.44
#  21    0.23   -0.18    0.01   -0.28   -0.04    0.00    0.00      -0.26   -3.55   -0.47
#  22    0.17   -0.20    0.00   -0.13   -0.03    0.00    0.00      -0.19   -1.57   -0.36
#  23    0.88   -0.21    0.00   -0.28   -0.03    0.00    0.00       0.36   -3.30   -0.33
#  24   -0.22   -0.29    0.01    0.26   -0.06    0.00    0.00      -0.30    1.39   -0.31
#  25    3.41   -0.26    0.01   -1.79    0.06    0.00    0.00       1.43  -12.54    0.43
#  26   -5.27    0.00    0.00    0.88    0.03    0.00    0.00      -4.37   17.16    0.56
#  27    0.02   -0.13    0.00    0.02   -0.03    0.00    0.00      -0.12    0.19   -0.39
#  28   -0.03   -0.12    0.00    0.03   -0.03    0.00    0.00      -0.15    0.43   -0.37
#  29    0.82   -0.37    0.01   -2.03    0.44    0.00    0.00      -1.13  -14.97    3.21
#  30   -0.11   -0.32    0.01    0.43   -0.08    0.00    0.00      -0.08    2.10   -0.41
#  31    0.22   -0.41    0.02   -0.33   -0.07    0.00    0.00      -0.56   -1.78   -0.37
#  32    0.09   -0.42    0.02   -0.45   -0.08    0.00    0.00      -0.82   -2.57   -0.45
#  33    0.07   -0.35    0.02   -0.11   -0.06    0.00    0.00      -0.43   -0.74   -0.41
#  34    0.13   -0.42    0.04   -0.27   -0.07    0.00    0.00      -0.59   -1.58   -0.44
#  35    0.11   -0.26    0.01   -0.17   -0.06    0.00    0.00      -0.36   -1.42   -0.47
#  36    0.08   -0.14    0.00   -0.09   -0.03    0.00    0.00      -0.19   -1.47   -0.47
#  37    0.08   -0.16    0.01   -0.10   -0.03    0.00    0.00      -0.21   -1.35   -0.47
#  38    0.08   -0.29    0.02   -0.18   -0.05    0.00    0.00      -0.41   -1.54   -0.45
#  39   -0.05   -0.76    0.42    0.05   -0.08    0.00    0.00      -0.42    0.23   -0.37
#  40    0.03   -0.44    0.06    0.14   -0.09    0.00    0.00      -0.30    0.69   -0.42
#  41    0.27   -0.16    0.00   -0.08   -0.03    0.00    0.00       0.01   -1.18   -0.43
#  42    0.60   -1.29    0.22   -0.38   -0.14    0.00    0.00      -0.99   -1.20   -0.45
#  43    0.99   -2.34    1.07   -1.07   -0.18    0.00    0.00      -1.53   -2.75   -0.47
#  44   -0.17   -2.24    0.86    0.59   -0.13    0.00    0.00      -1.08    1.56   -0.33
#  45   -0.17   -1.95    0.82   -1.04   -0.20    0.00    0.00      -2.54   -2.27   -0.43
#  46   -0.33   -1.23    0.23    0.08   -0.19    0.00    0.00      -1.45    0.16   -0.39
#  47    0.14   -1.05    0.17    0.28   -0.20    0.00    0.00      -0.66    0.63   -0.46
#  48   15.23   -1.85    1.63   -7.23    0.33    0.00    0.00       8.12  -17.47    0.80
#  49  -21.51   -0.21    0.14    7.70    0.23    0.00    0.00     -13.65   19.11    0.57
#  50  -11.12   -0.03    0.00    5.36    0.17    0.00    0.00      -5.62   18.34    0.57
#  51   -2.08   -0.42    0.09    0.57   -0.07    0.00    0.00      -1.91    1.64   -0.20
#  52   -2.40   -0.21    0.01    0.27   -0.06    0.00    0.00      -2.39    1.21   -0.28
#  53   -2.19   -0.50    0.15    1.10   -0.11    0.00    0.00      -1.55    2.80   -0.28
#  54   -2.85   -0.12    0.00    0.72   -0.03    0.00    0.00      -2.28    6.85   -0.28
#  55   -1.69   -0.50    0.18    0.85   -0.10    0.00    0.00      -1.26    2.49   -0.28
#  56   -3.62   -0.59    0.23    1.08   -0.13    0.00    0.00      -3.03    2.27   -0.28
#  57   -0.73   -0.12    0.01    0.12   -0.03    0.00    0.00      -0.75    1.11   -0.28
#  58   -2.70   -0.15    0.00    0.24   -0.04    0.00    0.00      -2.64    1.72   -0.27
#  59   -2.68   -0.56    0.31    0.85   -0.10    0.00    0.00      -2.18    2.39   -0.28
#  60   -2.05   -0.39    0.11    0.82   -0.11    0.00    0.00      -1.62    2.13   -0.28
#  61   -1.45   -0.23    0.02    0.48   -0.06    0.00    0.00      -1.25    2.15   -0.28
#  62   -0.14   -0.33    0.20    0.42   -0.05    0.00    0.00       0.10    2.31   -0.26
#  63   -1.43   -0.14    0.02    0.28   -0.03    0.00    0.00      -1.31    2.29   -0.28
#  64   -0.48   -0.09    0.01    0.09   -0.02    0.00    0.00      -0.49    1.09   -0.28
#  65   -0.42   -0.06    0.00    0.04   -0.01    0.00    0.00      -0.46    0.78   -0.28
#  66   -2.10    0.00    0.00    0.40    0.02    0.00    0.00      -1.69    8.58    0.43
#  67   -0.21   -0.02    0.00    0.08   -0.01    0.00    0.00      -0.16    3.23   -0.22
#  68   -0.27   -0.05    0.00    0.21   -0.01    0.00    0.00      -0.12    3.97   -0.28
#  69   -0.29   -0.05    0.00    0.27   -0.01    0.00    0.00      -0.08    5.93   -0.22
#  70   -1.89   -0.17    0.01    1.12   -0.05    0.00    0.00      -0.99    6.04   -0.28
#  71   -0.33   -0.10    0.00    0.56   -0.02    0.00    0.00       0.13    5.18   -0.15
#  72   -0.21   -0.03    0.00    0.16   -0.01    0.00    0.00      -0.08    5.25   -0.21
#  73   -0.22   -0.05    0.00    0.26   -0.01    0.00    0.00      -0.03    5.16   -0.28
#  74   -0.08   -0.04    0.00    0.11   -0.01    0.00    0.00      -0.02    2.77   -0.17
#  75   -0.15   -0.02    0.00    0.10   -0.01    0.00    0.00      -0.08    3.18   -0.28
#  76   -0.06   -0.16    0.01    0.28   -0.05    0.00    0.00       0.03    1.51   -0.26
#  77   -0.10   -0.10    0.00    0.19   -0.03    0.00    0.00      -0.03    2.11   -0.28
#  78   -0.21   -0.09    0.01    0.22   -0.02    0.00    0.00      -0.11    1.94   -0.21
#  79   -0.11   -0.10    0.01    0.29   -0.03    0.00    0.00       0.05    2.47   -0.27
#  80   -0.20   -0.15    0.03    0.37   -0.03    0.00    0.00       0.02    2.36   -0.21
#  81   -0.13   -0.05    0.00    0.09   -0.02    0.00    0.00      -0.11    1.51   -0.28
#  82   -0.08   -0.02    0.00    0.02   -0.01    0.00    0.00      -0.08    1.04   -0.28
#  83   -0.07   -0.02    0.00    0.02   -0.01    0.00    0.00      -0.07    1.20   -0.28
#  84   -0.09   -0.06    0.00    0.13   -0.02    0.00    0.00      -0.04    1.85   -0.28
#  85   -0.11   -0.31    0.16    0.51   -0.04    0.00    0.00       0.21    2.48   -0.21
#  86   -0.34   -0.56    0.95    0.37   -0.05    0.00    0.00       0.37    1.84   -0.25
#  87   -1.59   -0.08    0.00    0.37   -0.02    0.00    0.00      -1.32    4.96   -0.28
#  88   -2.89   -0.26    0.05    1.42   -0.06    0.00    0.00      -1.74    6.21   -0.28
#  89   -1.61   -0.04    0.00    0.13   -0.01    0.00    0.00      -1.53    3.36   -0.27
#  90   -2.23   -0.40    0.16    0.86   -0.07    0.00    0.00      -1.68    3.26   -0.28
#  91   -1.56   -0.92    1.40    1.29   -0.12    0.00    0.00       0.09    3.13   -0.28
#  92   -0.44   -0.58    0.27    0.87   -0.11    0.00    0.00       0.01    2.17   -0.28
#  93   -3.03   -0.67    0.41    0.67   -0.10    0.00    0.00      -2.72    1.35   -0.21
#  94   -1.21   -0.21    0.03    1.25   -0.06    0.00    0.00      -0.19    6.30   -0.28
#  95   -2.52   -0.52    0.13    1.90   -0.11    0.00    0.00      -1.12    3.94   -0.22

@<TRIPOS>MOLECULE
          T527398        18
   95   100     0     0     0



@<TRIPOS>ATOM
      1 C1         -0.0941    -4.2761    94.2468 C.3        1          -0.1759
      2 C2          0.8421    -5.4216    94.6379 C.3        1           0.0314
      3 C3          1.7853    -4.9529    95.7480 C.3        1           0.0286
      4 N1          2.6712    -6.0609    96.1312 N.3        1          -0.5310
      5 C4          3.5533    -6.4387    95.0189 C.3        1           0.0968
      6 C5          4.7415    -7.1953    95.5547 C.ar       1          -0.0899
      7 C6          5.4028    -6.7354    96.6795 C.ar       1          -0.0853
      8 C7          6.4939    -7.4247    97.1766 C.ar       1          -0.1136
      9 C8          6.9290    -8.5762    96.5521 C.ar       1          -0.0929
     10 C9          6.2668    -9.0440    95.4190 C.ar       1          -0.0515
     11 C10         5.1644    -8.3484    94.9257 C.ar       1          -0.0951
     12 C11         6.7299   -10.2810    94.7434 C.ar       1          -0.0806
     13 C12         7.1473   -10.2380    93.4147 C.ar       1          -0.0578
     14 C13         7.5771   -11.3916    92.7912 C.ar       1          -0.1198
     15 C14         8.0290   -11.3453    91.3542 C.3        1           0.1611
     16 N2          7.0792   -10.5531    90.5689 N.am       1          -0.7197
     17 C15         7.2812   -10.3739    89.2484 C.2        1           0.5551
     18 O1          8.2511   -10.8695    88.7092 O.2        1          -0.5238
     19 C16         6.3227    -9.5744    88.4558 C.ar       1          -0.1242
     20 C17         6.1668    -9.8186    87.0903 C.ar       1          -0.0560
     21 C18         5.2707    -9.0695    86.3567 C.ar       1          -0.1153
     22 C19         4.5273    -8.0772    86.9715 C.ar       1          -0.0734
     23 C20         4.6770    -7.8300    88.3242 C.ar       1          -0.1596
     24 C21         3.8630    -6.7477    88.9854 C.3        1           0.0328
     25 N3          3.3204    -7.2496    90.2549 N.4        1          -0.3828
     26 H1          4.0799    -7.5180    90.8625 H          1           0.4280
     27 C22         2.4663    -8.4158    89.9949 C.3        1          -0.0077
     28 C23         1.3244    -8.0137    89.0587 C.3        1           0.0238
     29 N4          0.5393    -6.9389    89.6819 N.3        1          -0.5327
     30 C24        -0.6023    -6.5633    88.8371 C.3        1           0.0891
     31 C25        -1.4951    -7.7607    88.6377 C.2        1          -0.1667
     32 C26        -1.7232    -8.2214    87.4157 C.2        1          -0.0878
     33 C27        -2.5989    -9.3960    87.2200 C.ar       1          -0.0749
     34 C28        -3.5039    -9.7686    88.2146 C.ar       1          -0.1100
     35 C29        -4.3186   -10.8660    88.0258 C.ar       1          -0.1188
     36 C30        -4.2392   -11.5966    86.8537 C.ar       1          -0.1092
     37 C31        -3.3439   -11.2326    85.8640 C.ar       1          -0.1180
     38 C32        -2.5283   -10.1334    86.0377 C.ar       1          -0.1045
     39 C33         1.3868    -5.7734    89.9708 C.3        1           0.0231
     40 C34         2.5276    -6.1942    90.8994 C.3        1          -0.0030
     41 C35         5.5659    -8.5760    89.0708 C.ar       1          -0.0355
     42 C36         7.5940   -12.5908    93.4820 C.ar       1          -0.0657
     43 C37         7.1821   -12.6412    94.8003 C.ar       1          -0.1492
     44 C38         6.7548   -11.4910    95.4379 C.ar       1           0.1195
     45 F1          6.3568   -11.5398    96.7281 F          1          -0.1363
     46 C39         1.8879    -7.2137    96.5971 C.3        1           0.0186
     47 C40         0.9440    -7.6667    95.4812 C.3        1          -0.0079
     48 N5          0.0484    -6.5606    95.1177 N.4        1          -0.5068
     49 H2         -0.4854    -6.2808    95.9270 H          1           0.4326
     50 H3         -0.5803    -6.8628    94.3889 H          1           0.4264
     51 H4          0.4949    -3.4310    93.8908 H          1           0.0919
     52 H5         -0.7658    -4.6099    93.4560 H          1           0.1039
     53 H6         -0.6782    -3.9718    95.1153 H          1           0.0768
     54 H7          1.4261    -5.7259    93.7693 H          1           0.1452
     55 H8          2.3838    -4.1161    95.3878 H          1           0.0624
     56 H9          1.2016    -4.6377    96.6127 H          1           0.1244
     57 H10         3.0057    -7.0703    94.3194 H          1           0.0565
     58 H11         3.8960    -5.5403    94.5056 H          1           0.0995
     59 H12         5.0659    -5.8347    97.1709 H          1           0.1281
     60 H13         7.0067    -7.0610    98.0547 H          1           0.1312
     61 H14         7.7814    -9.1135    96.9409 H          1           0.1263
     62 H15         4.6447    -8.7089    94.0503 H          1           0.1195
     63 H16         7.1340    -9.3035    92.8737 H          1           0.1383
     64 H17         9.0169   -10.8880    91.2985 H          1           0.0873
     65 H18         8.0745   -12.3584    90.9548 H          1           0.0861
     66 H19         6.3052   -10.1576    90.9992 H          1           0.4021
     67 H20         6.7468   -10.5925    86.6092 H          1           0.1367
     68 H21         5.1490    -9.2575    85.3002 H          1           0.1446
     69 H22         3.8276    -7.4930    86.3924 H          1           0.1363
     70 H23         4.4974    -5.8825    89.1781 H          1           0.1415
     71 H24         3.0427    -6.4578    88.3289 H          1           0.1368
     72 H25         3.0585    -9.2032    89.5284 H          1           0.1332
     73 H26         2.0534    -8.7807    90.9354 H          1           0.1418
     74 H27         1.7366    -7.6616    88.1130 H          1           0.0594
     75 H28         0.6821    -8.8755    88.8775 H          1           0.1243
     76 H29        -1.1662    -5.7663    89.3218 H          1           0.0503
     77 H30        -0.2395    -6.2153    87.8699 H          1           0.0981
     78 H31        -1.9493    -8.2437    89.4902 H          1           0.1252
     79 H32        -1.2690    -7.7385    86.5630 H          1           0.1171
     80 H33        -3.5662    -9.1993    89.1304 H          1           0.1237
     81 H34        -5.0194   -11.1554    88.7950 H          1           0.1263
     82 H35        -4.8790   -12.4550    86.7110 H          1           0.1267
     83 H36        -3.2864   -11.8076    84.9515 H          1           0.1273
     84 H37        -1.8334    -9.8472    85.2620 H          1           0.1239
     85 H38         1.7999    -5.3844    89.0402 H          1           0.0605
     86 H39         0.7898    -5.0007    90.4552 H          1           0.1264
     87 H40         2.1145    -6.5705    91.8353 H          1           0.1421
     88 H41         3.1654    -5.3341    91.1035 H          1           0.1375
     89 H42         5.6789    -8.3849    90.1277 H          1           0.1468
     90 H43         7.9317   -13.4902    92.9886 H          1           0.1395
     91 H44         7.1980   -13.5798    95.3344 H          1           0.1436
     92 H45         2.5614    -8.0301    96.8579 H          1           0.0609
     93 H46         1.3054    -6.9279    97.4729 H          1           0.1264
     94 H47         1.5276    -7.9629    94.6096 H          1           0.1380
     95 H48         0.3524    -8.5142    95.8275 H          1           0.1418
@<TRIPOS>BOND
     1    1    2 1
     2    1   51 1
     3    1   52 1
     4    1   53 1
     5    2   48 1
     6    2    3 1
     7    2   54 1
     8    3    4 1
     9    3   55 1
    10    3   56 1
    11    4    5 1
    12    4   46 1
    13    5    6 1
    14    5   57 1
    15    5   58 1
    16    6   11 ar
    17    6    7 ar
    18    7    8 ar
    19    7   59 1
    20    8    9 ar
    21    8   60 1
    22    9   10 ar
    23    9   61 1
    24   10   11 ar
    25   10   12 1
    26   11   62 1
    27   12   44 ar
    28   12   13 ar
    29   13   14 ar
    30   13   63 1
    31   14   15 1
    32   14   42 ar
    33   15   16 1
    34   15   64 1
    35   15   65 1
    36   16   17 am
    37   16   66 1
    38   17   18 2
    39   17   19 1
    40   19   41 ar
    41   19   20 ar
    42   20   21 ar
    43   20   67 1
    44   21   22 ar
    45   21   68 1
    46   22   23 ar
    47   22   69 1
    48   23   24 1
    49   23   41 ar
    50   24   25 1
    51   24   70 1
    52   24   71 1
    53   25   26 1
    54   25   40 1
    55   25   27 1
    56   27   28 1
    57   27   72 1
    58   27   73 1
    59   28   29 1
    60   28   74 1
    61   28   75 1
    62   29   30 1
    63   29   39 1
    64   30   31 1
    65   30   76 1
    66   30   77 1
    67   31   32 2
    68   31   78 1
    69   32   33 1
    70   32   79 1
    71   33   38 ar
    72   33   34 ar
    73   34   35 ar
    74   34   80 1
    75   35   36 ar
    76   35   81 1
    77   36   37 ar
    78   36   82 1
    79   37   38 ar
    80   37   83 1
    81   38   84 1
    82   39   40 1
    83   39   85 1
    84   39   86 1
    85   40   87 1
    86   40   88 1
    87   41   89 1
    88   42   43 ar
    89   42   90 1
    90   43   44 ar
    91   43   91 1
    92   44   45 1
    93   46   47 1
    94   46   92 1
    95   46   93 1
    96   47   48 1
    97   47   94 1
    98   47   95 1
    99   48   49 1
   100   48   50 1
##########                 Name:              T538798
##########          Protonation:                   62
##########               SMILES:   c1c(cc(c2c1[C@@H](CCN2)[NH2+]CCC[NH2+][C@@H]3CCNc4c3cc(cc4Br)Br)Br)Br
##########            Long Name:   3-[[(4R)-6,8-dibromo-1,2,3,4-tetrahydroquinolin-4-yl]ammonio]propyl]ammonium
##########          FlexRecCode: 1
##########               Number:                  217
##########   Ligand Source File: /raidb/db2/rgc/tcams/tcams-0001862.db2.gz
##########           GlobalRank: 140
##########                 Rank:                    1
##########               Setnum:                    5
##########             Matchnum:                 4080
##########                Cloud:                    1
##########        Electrostatic:           -59.210144
##########        Van der Waals:           -20.324720
##########  Ligand Polar Desolv:            14.177776
########## Ligand Apolar Desolv:            -1.950340
##########      Internal Energy:             0.000000
##########      Receptor Energy: 0.0
########## Receptor Desolvation:             0.000000
########## Receptor Hydrophobic:             0.000000
##########         Total Energy: -67.31
##########        Ligand Charge:             2.000000
##########            Arbitrary:    +999.9990
##########     heavy atom count:   29
##########           pose count:    1
##########        Ligand Energy:             0.000000
# num electro vdwattr vdwrepu polsolv apolsol rdesolv rhydroe totalscore fullpol fullapo
#   1    0.01   -0.30    0.01   -0.12   -0.06    0.00    0.00      -0.46   -2.18   -1.09
#   2    0.31   -0.36    0.03   -0.53   -0.04    0.00    0.00      -0.59   -4.40   -0.30
#   3    0.14   -0.50    0.08    0.07   -0.06    0.00    0.00      -0.28    0.48   -0.41
#   4    0.93   -1.08    0.30   -1.26   -0.09    0.00    0.00      -1.19   -5.40   -0.39
#   5   -1.21   -1.68    0.64    2.41   -0.22    0.00    0.00      -0.07    7.43   -0.69
#   6    3.52   -2.43    1.18   -9.18    0.74    0.00    0.00      -6.16  -20.90    1.68
#   7   -2.75   -1.84    0.85    1.26   -0.25    0.00    0.00      -2.73    2.65   -0.53
#   8    4.55   -1.33    0.45   -2.70   -0.09    0.00    0.00       0.88   -6.45   -0.21
#   9   -1.67   -0.61    0.06    1.97   -0.07    0.00    0.00      -0.32    6.59   -0.24
#  10   12.76   -1.04    0.19   -8.18    0.18    0.00    0.00       3.91  -26.75    0.58
#  11  -13.96   -0.03    0.00    7.00    0.16    0.00    0.00      -6.83   25.14    0.56
#  12  -12.58   -0.04    0.00    7.17    0.12    0.00    0.00      -5.33   25.42    0.42
#  13    0.17   -0.41    0.03   -0.23   -0.07    0.00    0.00      -0.52   -1.17   -0.37
#  14    5.98   -1.16    0.56   -2.98   -0.06    0.00    0.00       2.33  -11.12   -0.23
#  15    0.18   -0.37    0.03   -0.21   -0.07    0.00    0.00      -0.44   -1.17   -0.37
#  16   13.41   -0.72    0.17   -5.84    0.13    0.00    0.00       7.14  -26.75    0.58
#  17  -15.02   -0.02    0.00    5.08    0.08    0.00    0.00      -9.88   25.42    0.42
#  18  -13.16   -0.02    0.00    4.07    0.09    0.00    0.00      -9.02   25.13    0.56
#  19   -1.17   -0.42    0.04    1.31   -0.05    0.00    0.00      -0.27    6.60   -0.24
#  20    1.70   -0.55    0.10   -1.38   -0.04    0.00    0.00      -0.17   -6.45   -0.21
#  21   -2.20   -0.53    0.02    0.76   -0.15    0.00    0.00      -2.10    2.65   -0.53
#  22    8.59   -1.01    0.09   -6.79    0.55    0.00    0.00       1.43  -20.89    1.68
#  23   -2.68   -1.05    0.15    2.13   -0.20    0.00    0.00      -1.66    7.43   -0.69
#  24    1.92   -0.86    0.13   -1.26   -0.09    0.00    0.00      -0.17   -5.39   -0.39
#  25    0.29   -0.69    0.08    0.10   -0.09    0.00    0.00      -0.31    0.48   -0.41
#  26    0.95   -0.95    0.26   -0.99   -0.07    0.00    0.00      -0.79   -4.41   -0.30
#  27    0.06   -1.58    0.24   -0.43   -0.21    0.00    0.00      -1.92   -2.19   -1.09
#  28   -0.11   -1.52    0.92   -0.38   -0.13    0.00    0.00      -1.21   -1.36   -0.45
#  29    1.36   -1.27    0.25   -1.40   -0.09    0.00    0.00      -1.15   -4.54   -0.30
#  30   -0.02   -3.81    0.79   -0.90   -0.43    0.00    0.00      -4.37   -2.20   -1.05
#  31    0.47   -1.14    0.17   -1.55   -0.10    0.00    0.00      -2.15   -4.54   -0.30
#  32    0.00   -6.86    3.97   -1.08   -0.51    0.00    0.00      -4.48   -2.20   -1.04
#  33   -0.03   -0.56    0.04   -0.26   -0.09    0.00    0.00      -0.90   -1.36   -0.45
#  34   -0.62   -0.05    0.00    0.60   -0.01    0.00    0.00      -0.08   10.82   -0.21
#  35   -2.11   -0.04    0.00    3.85    0.21    0.00    0.00       1.91    8.89    0.49
#  36   -1.99   -0.60    0.32    1.16   -0.12    0.00    0.00      -1.22    2.63   -0.28
#  37   -3.91   -1.69    5.04    1.12   -0.11    0.00    0.00       0.45    2.80   -0.28
#  38   -3.97   -1.29    4.07    3.77   -0.09    0.00    0.00       2.50   10.27   -0.24
#  39   -3.49   -0.39    0.07    1.79   -0.11    0.00    0.00      -2.13    4.62   -0.28
#  40   -2.26   -0.12    0.01    1.24   -0.03    0.00    0.00      -1.17   10.79   -0.28
#  41   -1.65   -0.07    0.00    0.65   -0.02    0.00    0.00      -1.08   10.84   -0.28
#  42   -2.32   -0.06    0.00    0.63   -0.01    0.00    0.00      -1.76   10.33   -0.23
#  43   -4.85   -0.87    1.16    2.51   -0.09    0.00    0.00      -2.14    8.12   -0.28
#  44   -4.53   -0.61    0.42    2.25   -0.08    0.00    0.00      -2.54    8.12   -0.28
#  45   -1.96   -0.05    0.00    0.53   -0.01    0.00    0.00      -1.50   10.34   -0.23
#  46   -2.40   -0.07    0.00    0.79   -0.02    0.00    0.00      -1.71   10.84   -0.28
#  47   -0.86   -0.12    0.01    1.16   -0.03    0.00    0.00       0.17   10.80   -0.28
#  48   -1.58   -0.10    0.00    0.39   -0.02    0.00    0.00      -1.30    4.64   -0.28
#  49    0.48   -0.55    0.82    2.00   -0.05    0.00    0.00       2.70   10.27   -0.24
#  50   -3.21   -0.17    0.01    0.45   -0.04    0.00    0.00      -2.97    2.80   -0.28
#  51   -1.61   -0.18    0.01    0.50   -0.05    0.00    0.00      -1.34    2.63   -0.28
#  52   -4.62   -0.02    0.00    2.16    0.12    0.00    0.00      -2.36    8.90    0.49
#  53   -0.86   -0.07    0.00    0.73   -0.01    0.00    0.00      -0.22   10.82   -0.21
#  54   -1.37   -0.28    0.11    0.15   -0.05    0.00    0.00      -1.44    0.83   -0.28
#  55   -0.29   -0.08    0.00    0.05   -0.02    0.00    0.00      -0.33    0.83   -0.28

@<TRIPOS>MOLECULE
          T538798        62
   55    58     0     0     0



@<TRIPOS>ATOM
      1 Br1         4.4898    -9.9990    85.9867 Br         1          -0.0101
      2 C1          5.0760    -8.2414    85.6084 C.ar       1          -0.1325
      3 C2          6.1699    -7.7204    86.2751 C.ar       1          -0.0403
      4 C3          6.6039    -6.4353    86.0028 C.ar       1          -0.2215
      5 C4          5.9375    -5.6703    85.0571 C.ar       1           0.2930
      6 N1          6.3637    -4.3692    84.7668 N.pl3      1          -0.7343
      7 C5          7.2913    -3.6971    85.6847 C.3        1           0.1208
      8 C6          8.4080    -4.7007    85.9948 C.3        1          -0.1632
      9 C7          7.7965    -5.8868    86.7420 C.3        1           0.1011
     10 N2          7.3758    -5.4492    88.0797 N.4        1          -0.5092
     11 H1          8.1715    -5.0809    88.5789 H          1           0.4331
     12 H2          6.6717    -4.7317    87.9931 H          1           0.4292
     13 C8          6.8216    -6.5926    88.8171 C.3        1          -0.0085
     14 C9          6.3834    -6.1368    90.2104 C.3        1          -0.1859
     15 C10         5.8063    -7.3277    90.9784 C.3        1          -0.0085
     16 N3          5.3855    -6.8903    92.3161 N.4        1          -0.5091
     17 H3          6.1813    -6.5219    92.8153 H          1           0.4291
     18 H4          4.6815    -6.1727    92.2294 H          1           0.4331
     19 C11         4.8313    -8.0335    93.0534 C.3        1           0.1010
     20 C12         3.9292    -7.5178    94.1756 C.3        1          -0.1633
     21 C13         4.8095    -6.8351    95.2288 C.3        1           0.1207
     22 N4          5.6716    -7.8786    95.7970 N.pl3      1          -0.7343
     23 C14         6.3389    -8.7574    94.9361 C.ar       1           0.2929
     24 C15         5.9625    -8.8617    93.6053 C.ar       1          -0.2215
     25 C16         6.6326    -9.7369    92.7695 C.ar       1          -0.0403
     26 C17         7.6741   -10.5050    93.2570 C.ar       1          -0.1324
     27 Br2         8.5841   -11.6992    92.1075 Br         1          -0.0101
     28 C18         8.0520   -10.4012    94.5838 C.ar       1           0.0135
     29 C19         7.3868    -9.5296    95.4245 C.ar       1          -0.1562
     30 Br3         7.9016    -9.3871    97.2385 Br         1           0.0018
     31 C20         4.8378    -6.1955    84.3879 C.ar       1          -0.1563
     32 Br4         3.9282    -5.1528    83.0989 Br         1           0.0018
     33 C21         4.4131    -7.4815    84.6612 C.ar       1           0.0135
     34 H5          6.6869    -8.3186    87.0108 H          1           0.1306
     35 H6          6.0499    -3.9169    83.9682 H          1           0.4221
     36 H7          7.7088    -2.8093    85.2096 H          1           0.0845
     37 H8          6.7729    -3.4203    86.6028 H          1           0.1136
     38 H9          8.8593    -5.0463    85.0647 H          1           0.1084
     39 H10         9.1656    -4.2256    86.6180 H          1           0.0993
     40 H11         8.5466    -6.6711    86.8438 H          1           0.1520
     41 H12         5.9619    -6.9905    88.2779 H          1           0.1466
     42 H13         7.5822    -7.3676    88.9109 H          1           0.1467
     43 H14         7.2431    -5.7390    90.7497 H          1           0.1145
     44 H15         5.6227    -5.3619    90.1167 H          1           0.1145
     45 H16         4.9467    -7.7257    90.4392 H          1           0.1467
     46 H17         6.5670    -8.1027    91.0722 H          1           0.1467
     47 H18         4.2389    -8.6450    92.3728 H          1           0.1523
     48 H19         3.2159    -6.7992    93.7720 H          1           0.0992
     49 H20         3.3946    -8.3524    94.6294 H          1           0.1085
     50 H21         5.4186    -6.0614    94.7613 H          1           0.1136
     51 H22         4.1869    -6.3991    96.0100 H          1           0.0845
     52 H23         5.7778    -7.9579    96.7579 H          1           0.4221
     53 H24         6.3412    -9.8208    91.7329 H          1           0.1306
     54 H25         8.8664   -11.0013    94.9621 H          1           0.1579
     55 H26         3.5614    -7.8919    84.1389 H          1           0.1579
@<TRIPOS>BOND
     1    1    2 1
     2    2   33 ar
     3    2    3 ar
     4    3    4 ar
     5    3   34 1
     6    4    9 1
     7    4    5 ar
     8    5    6 1
     9    5   31 ar
    10    6    7 1
    11    6   35 1
    12    7    8 1
    13    7   36 1
    14    7   37 1
    15    8    9 1
    16    8   38 1
    17    8   39 1
    18    9   10 1
    19    9   40 1
    20   10   11 1
    21   10   12 1
    22   10   13 1
    23   13   14 1
    24   13   41 1
    25   13   42 1
    26   14   15 1
    27   14   43 1
    28   14   44 1
    29   15   16 1
    30   15   45 1
    31   15   46 1
    32   16   17 1
    33   16   18 1
    34   16   19 1
    35   19   24 1
    36   19   20 1
    37   19   47 1
    38   20   21 1
    39   20   48 1
    40   20   49 1
    41   21   22 1
    42   21   50 1
    43   21   51 1
    44   22   23 1
    45   22   52 1
    46   23   29 ar
    47   23   24 ar
    48   24   25 ar
    49   25   26 ar
    50   25   53 1
    51   26   27 1
    52   26   28 ar
    53   28   29 ar
    54   28   54 1
    55   29   30 1
    56   31   32 1
    57   31   33 ar
    58   33   55 1
##########                 Name:              T533653
##########          Protonation:                   11
##########               SMILES:   c1cc(cc(c1)Cl)CNc2[nH+]c(nc(n2)NCCc3c[nH+]c[nH]3)NC4CCCCC4
##########            Long Name:   exyl-N4-[2-(1H-imidazol-3-ium-5-yl)ethyl]-1,3,5-triazin-1-ium-2,4,6-triamine
##########          FlexRecCode: 1
##########               Number:                  107
##########   Ligand Source File: /raidb/db2/rgc/tcams/tcams-0001124.db2.gz
##########           GlobalRank: 141
##########                 Rank:                    1
##########               Setnum:                  310
##########             Matchnum:                   85
##########                Cloud:                    1
##########        Electrostatic:           -48.664967
##########        Van der Waals:           -30.214348
##########  Ligand Polar Desolv:            17.005508
########## Ligand Apolar Desolv:            -5.410492
##########      Internal Energy:             0.000000
##########      Receptor Energy: 0.0
########## Receptor Desolvation:             0.000000
########## Receptor Hydrophobic:             0.000000
##########         Total Energy: -67.28
##########        Ligand Charge:             2.000000
##########            Arbitrary:    +999.9990
##########     heavy atom count:   30
##########           pose count:    1
##########        Ligand Energy:             0.000000
# num electro vdwattr vdwrepu polsolv apolsol rdesolv rhydroe totalscore fullpol fullapo
#   1    1.02   -8.13    4.25   -1.22   -0.64    0.00    0.00      -4.72   -1.90   -0.99
#   2    0.63   -1.97    0.31   -0.84   -0.17    0.00    0.00      -2.04   -1.52   -0.30
#   3    1.21   -2.27    0.78   -1.35   -0.25    0.00    0.00      -1.87   -2.51   -0.46
#   4    0.95   -1.87    0.63   -1.40   -0.24    0.00    0.00      -1.93   -2.73   -0.47
#   5    0.59   -1.50    0.24   -0.78   -0.19    0.00    0.00      -1.63   -1.87   -0.45
#   6    0.98   -1.36    0.16   -0.75   -0.13    0.00    0.00      -1.10   -2.08   -0.37
#   7   -0.60   -1.01    0.31    1.42   -0.13    0.00    0.00       0.00    4.40   -0.39
#   8    6.43   -1.13    0.23   -5.54    0.45    0.00    0.00       0.44  -21.29    1.74
#   9   -9.62   -0.77    0.08    5.47   -1.17    0.00    0.00      -6.00   22.60   -4.81
#  10    8.01   -0.65    0.05   -4.24    0.43    0.00    0.00       3.60  -19.39    1.96
#  11  -12.44   -0.53    0.03    3.65   -0.89    0.00    0.00     -10.18   19.64   -4.81
#  12   10.34   -0.47    0.01   -3.83    0.32    0.00    0.00       6.38  -20.41    1.73
#  13   -1.46   -0.38    0.02    0.77   -0.08    0.00    0.00      -1.13    4.24   -0.43
#  14    1.60   -0.46    0.01   -0.60   -0.07    0.00    0.00       0.49   -2.22   -0.25
#  15   -1.46   -1.10    0.07    0.32   -0.26    0.00    0.00      -2.42    0.88   -0.70
#  16   -0.49   -1.68    0.29    0.01   -0.43    0.00    0.00      -2.30    0.02   -1.01
#  17   15.73   -3.21    1.58   -9.53    0.59    0.00    0.00       5.16  -18.59    1.15
#  18  -14.41   -0.13    0.03    8.98    0.28    0.00    0.00      -5.26   18.85    0.59
#  19  -14.17   -3.42    1.62    6.98   -1.78    0.00    0.00     -10.76   13.08   -3.33
#  20   19.92   -2.28    0.60   -8.85    0.53    0.00    0.00       9.91  -19.84    1.18
#  21   14.12   -0.65    0.08   -3.58    0.40    0.00    0.00      10.36  -18.97    2.12
#  22  -15.09   -0.67    0.07    4.43   -1.00    0.00    0.00     -12.26   21.28   -4.80
#  23   13.39   -0.61    0.05   -4.03    0.31    0.00    0.00       9.11  -19.49    1.51
#  24   -2.53   -0.47    0.04    0.89   -0.05    0.00    0.00      -2.11    4.22   -0.22
#  25    1.26   -0.19    0.00   -0.44   -0.03    0.00    0.00       0.60   -3.59   -0.24
#  26    0.45   -0.35    0.02   -0.53   -0.05    0.00    0.00      -0.46   -2.83   -0.25
#  27    0.62   -0.77    0.15   -0.77   -0.07    0.00    0.00      -0.84   -2.82   -0.25
#  28    2.54   -1.05    0.27   -0.96   -0.09    0.00    0.00       0.71   -2.61   -0.25
#  29    3.13   -0.67    0.08   -0.92   -0.07    0.00    0.00       1.55   -3.09   -0.22
#  30   11.05   -0.88    0.15   -4.63    0.22    0.00    0.00       5.91  -20.46    0.99
#  31   -6.55   -0.02    0.00    3.00    0.06    0.00    0.00      -3.51   16.32    0.32
#  32    1.13   -1.45    0.15   -0.91   -0.20    0.00    0.00      -1.28   -2.01   -0.45
#  33   -2.61   -0.65    0.33    0.73   -0.14    0.00    0.00      -2.33    1.45   -0.28
#  34   -1.10   -0.35    0.04    1.32   -0.13    0.00    0.00      -0.21    2.95   -0.28
#  35   -0.70   -0.26    0.02    1.55   -0.08    0.00    0.00       0.53    5.51   -0.28
#  36    0.30   -0.86    1.25    1.52   -0.08    0.00    0.00       2.13    5.00   -0.27
#  37   -0.53   -0.27    0.08    1.19   -0.06    0.00    0.00       0.40    5.68   -0.27
#  38   -4.60   -0.03    0.00    2.73    0.11    0.00    0.00      -1.79   14.56    0.58
#  39   -6.92   -0.01    0.00    1.44    0.06    0.00    0.00      -5.42   14.25    0.58
#  40   -0.71   -0.11    0.01    0.35   -0.03    0.00    0.00      -0.50    3.46   -0.28
#  41   -0.52   -0.19    0.05    0.44   -0.04    0.00    0.00      -0.26    3.01   -0.28
#  42   -2.25   -0.14    0.00    0.56   -0.04    0.00    0.00      -1.86    4.05   -0.28
#  43   -2.86   -0.16    0.01    0.72   -0.04    0.00    0.00      -2.34    4.65   -0.28
#  44   -5.10   -0.32    0.04    2.61   -0.08    0.00    0.00      -2.84    9.04   -0.28
#  45  -14.22   -1.28    1.39    8.36   -0.17    0.00    0.00      -5.93   13.84   -0.28
#  46  -19.55   -0.05    0.00    7.23    0.23    0.00    0.00     -12.15   18.61    0.59
#  47   -7.69   -0.01    0.00    1.42    0.06    0.00    0.00      -6.22   12.94    0.58
#  48   -2.46   -0.26    0.05    1.02   -0.05    0.00    0.00      -1.70    4.95   -0.23
#  49   -0.63   -0.04    0.00    0.06   -0.01    0.00    0.00      -0.63    1.28   -0.28
#  50   -0.44   -0.03    0.00    0.12   -0.01    0.00    0.00      -0.36    3.26   -0.28
#  51   -0.22   -0.07    0.00    0.06   -0.02    0.00    0.00      -0.25    0.89   -0.28
#  52   -0.23   -0.16    0.02    0.41   -0.04    0.00    0.00       0.00    2.86   -0.28
#  53   -0.49   -0.42    0.31    0.12   -0.06    0.00    0.00      -0.55    0.57   -0.28
#  54   -0.35   -0.30    0.07    0.10   -0.07    0.00    0.00      -0.56    0.39   -0.28
#  55   -2.46   -0.31    0.04    0.17   -0.09    0.00    0.00      -2.66    0.50   -0.28
#  56   -2.11   -1.22    3.87    0.72   -0.09    0.00    0.00       1.16    2.15   -0.28
#  57   -2.77   -0.46    0.22    0.70   -0.09    0.00    0.00      -2.39    2.30   -0.28
#  58   -1.60   -0.10    0.00    0.13   -0.02    0.00    0.00      -1.59    1.52   -0.28
#  59   -2.14   -0.24    0.02    0.99   -0.07    0.00    0.00      -1.43    4.07   -0.28

@<TRIPOS>MOLECULE
          T533653        11
   59    62     0     0     0



@<TRIPOS>ATOM
      1 Cl1         8.6341    -7.1221    99.4324 Cl         1          -0.0456
      2 C1          8.2806    -8.5389    98.4935 C.ar       1          -0.0373
      3 C2          8.8331    -9.7579    98.8448 C.ar       1          -0.0813
      4 C3          8.5509   -10.8853    98.0973 C.ar       1          -0.1019
      5 C4          7.7171   -10.7955    96.9980 C.ar       1          -0.0876
      6 C5          7.1648    -9.5781    96.6465 C.ar       1          -0.1243
      7 C6          6.2561    -9.4810    95.4483 C.3        1           0.1369
      8 N1          7.0522    -9.1875    94.2541 N.pl3      1          -0.6530
      9 C7          6.4985    -8.4664    93.2157 C.ar       1           0.6969
     10 N2          5.2446    -8.0333    93.3016 N.ar       1          -0.6233
     11 C8          4.7113    -7.3388    92.3015 C.ar       1           0.6865
     12 N3          3.4097    -6.8890    92.3908 N.pl3      1          -0.6526
     13 C9          2.6155    -7.1769    93.5878 C.3        1           0.1236
     14 C10         2.1818    -5.8628    94.2403 C.3        1          -0.0776
     15 C11         3.4021    -5.0671    94.6264 C.2        1           0.0526
     16 C12         4.0613    -5.1266    95.7992 C.2        1           0.0181
     17 N4          5.0870    -4.2643    95.7429 N.pl3      1          -0.4733
     18 H1          5.7270    -4.1057    96.4544 H          1           0.4712
     19 C13         5.0884    -3.6726    94.5798 C.cat      1           0.3197
     20 N5          4.0567    -4.1491    93.8503 N.pl3      1          -0.5103
     21 N6          5.4320    -7.0771    91.2154 N.ar       1          -0.6180
     22 C14         6.6859    -7.5101    91.1296 C.ar       1           0.6971
     23 N7          7.4341    -7.2383    90.0022 N.pl3      1          -0.6481
     24 C15         6.8462    -6.4727    88.9000 C.3        1           0.1211
     25 C16         6.1773    -7.4314    87.9129 C.3        1          -0.1401
     26 C17         5.5636    -6.6318    86.7619 C.3        1          -0.1196
     27 C18         6.6623    -5.8456    86.0441 C.3        1          -0.1304
     28 C19         7.3313    -4.8870    87.0312 C.3        1          -0.1186
     29 C20         7.9451    -5.6865    88.1823 C.3        1          -0.1264
     30 N8          7.2210    -8.2001    92.1321 N.ar       1          -0.6353
     31 H2          8.1373    -8.5127    92.0713 H          1           0.4386
     32 C21         7.4418    -8.4507    97.3969 C.ar       1          -0.0851
     33 H3          9.4850    -9.8280    99.7030 H          1           0.1451
     34 H4          8.9822   -11.8368    98.3714 H          1           0.1443
     35 H5          7.4974   -11.6767    96.4137 H          1           0.1345
     36 H6          5.7320   -10.4270    95.3122 H          1           0.0989
     37 H7          5.5303    -8.6832    95.6063 H          1           0.1000
     38 H8          7.9685    -9.5000    94.1932 H          1           0.4445
     39 H9          3.0206    -6.3820    91.6610 H          1           0.4356
     40 H10         1.7330    -7.7525    93.3084 H          1           0.0955
     41 H11         3.2161    -7.7518    94.2926 H          1           0.0888
     42 H12         1.5813    -5.2880    93.5353 H          1           0.1110
     43 H13         1.5910    -6.0770    95.1309 H          1           0.1268
     44 H14         3.8083    -5.7582    96.6379 H          1           0.2265
     45 H15         5.7994    -2.9280    94.2531 H          1           0.2702
     46 H16         3.8220    -3.8880    92.9460 H          1           0.4669
     47 H17         8.3490    -7.5541    89.9395 H          1           0.4457
     48 H18         6.1027    -5.7803    89.2946 H          1           0.0886
     49 H19         6.9209    -8.1238    87.5183 H          1           0.0886
     50 H20         5.3945    -7.9915    88.4244 H          1           0.0600
     51 H21         5.0869    -7.3148    86.0587 H          1           0.0807
     52 H22         4.8199    -5.9394    87.1565 H          1           0.0675
     53 H23         7.4059    -6.5381    85.6496 H          1           0.0714
     54 H24         6.2251    -5.2760    85.2241 H          1           0.0778
     55 H25         8.1141    -4.3269    86.5199 H          1           0.0838
     56 H26         6.5877    -4.1946    87.4258 H          1           0.0694
     57 H27         8.4217    -5.0036    88.8856 H          1           0.0823
     58 H28         8.6887    -6.3789    87.7877 H          1           0.0858
     59 H29         7.0068    -7.5004    97.1247 H          1           0.1377
@<TRIPOS>BOND
     1    1    2 1
     2    2   32 ar
     3    2    3 ar
     4    3    4 ar
     5    3   33 1
     6    4    5 ar
     7    4   34 1
     8    5    6 ar
     9    5   35 1
    10    6    7 1
    11    6   32 ar
    12    7    8 1
    13    7   36 1
    14    7   37 1
    15    8    9 1
    16    8   38 1
    17    9   30 ar
    18    9   10 ar
    19   10   11 ar
    20   11   12 1
    21   11   21 ar
    22   12   13 1
    23   12   39 1
    24   13   14 1
    25   13   40 1
    26   13   41 1
    27   14   15 1
    28   14   42 1
    29   14   43 1
    30   15   20 1
    31   15   16 2
    32   16   17 1
    33   16   44 1
    34   17   18 1
    35   17   19 2
    36   19   20 1
    37   19   45 1
    38   20   46 1
    39   21   22 ar
    40   22   23 1
    41   22   30 ar
    42   23   24 1
    43   23   47 1
    44   24   29 1
    45   24   25 1
    46   24   48 1
    47   25   26 1
    48   25   49 1
    49   25   50 1
    50   26   27 1
    51   26   51 1
    52   26   52 1
    53   27   28 1
    54   27   53 1
    55   27   54 1
    56   28   29 1
    57   28   55 1
    58   28   56 1
    59   29   57 1
    60   29   58 1
    61   30   31 1
    62   32   59 1
##########                 Name:              T528790
##########          Protonation:                   27
##########               SMILES:   C[C@H](Nc1nc(nc([nH+]1)NC2CCCC2)N3CC[C@@](CC3)(c4ccccc4)C#N)Cc5ccc(cc5)Cl
##########            Long Name:   clopentylamino)-1,3,5-triazin-5-ium-2-yl]-4-phenyl-piperidine-4-carbonitrile
##########          FlexRecCode: 1
##########               Number:                  241
##########   Ligand Source File: /raidb/db2/rgc/tcams/tcams-0000635.db2.gz
##########           GlobalRank: 143
##########                 Rank:                    1
##########               Setnum:                  261
##########             Matchnum:                  140
##########                Cloud:                    1
##########        Electrostatic:           -33.652298
##########        Van der Waals:           -31.832727
##########  Ligand Polar Desolv:             3.582423
########## Ligand Apolar Desolv:            -5.358273
##########      Internal Energy:             0.000000
##########      Receptor Energy: 0.0
########## Receptor Desolvation:             0.000000
########## Receptor Hydrophobic:             0.000000
##########         Total Energy: -67.26
##########        Ligand Charge:             1.000000
##########            Arbitrary:    +999.9990
##########     heavy atom count:   37
##########           pose count:    1
##########        Ligand Energy:             0.000000
# num electro vdwattr vdwrepu polsolv apolsol rdesolv rhydroe totalscore fullpol fullapo
#   1    6.79   -1.43    0.26   -2.17   -0.09    0.00    0.00       3.36   -4.51   -0.19
#   2   -3.84   -0.67    0.06    1.11   -0.07    0.00    0.00      -3.41    3.42   -0.23
#   3    1.62   -0.50    0.02   -0.56   -0.06    0.00    0.00       0.51   -1.96   -0.22
#   4    1.47   -0.93    0.08   -0.39   -0.11    0.00    0.00       0.12   -1.26   -0.35
#   5    0.67   -1.37    0.67   -0.43   -0.11    0.00    0.00      -0.57   -1.58   -0.42
#   6    0.71   -1.26    0.26   -0.51   -0.14    0.00    0.00      -0.94   -1.62   -0.46
#   7    0.35   -1.21    0.10   -0.30   -0.11    0.00    0.00      -1.17   -0.81   -0.30
#   8    0.65   -2.76    0.54   -0.35   -0.41    0.00    0.00      -2.31   -0.84   -0.98
#   9    1.57   -1.42    0.18   -0.73   -0.20    0.00    0.00      -0.62   -1.66   -0.46
#  10    1.77   -1.39    0.21   -0.65   -0.18    0.00    0.00      -0.24   -1.62   -0.45
#  11   16.90   -1.16    0.15   -4.78    0.42    0.00    0.00      11.53  -15.39    1.34
#  12  -15.62   -1.51    0.48    4.52   -1.40    0.00    0.00     -13.53   15.52   -4.80
#  13   21.98   -2.42    1.26   -4.84    0.32    0.00    0.00      16.31  -14.76    0.98
#  14  -21.91   -0.08    0.01    3.96    0.09    0.00    0.00     -17.93   12.37    0.28
#  15  -15.67   -1.77    0.53    4.85   -1.54    0.00    0.00     -13.59   15.19   -4.81
#  16   18.17   -2.21    0.94   -4.66    0.48    0.00    0.00      12.72  -14.48    1.49
#  17   -0.76   -0.93    0.33    0.82   -0.08    0.00    0.00      -0.63    3.01   -0.29
#  18    0.95   -0.24    0.01   -0.44   -0.04    0.00    0.00       0.23   -2.98   -0.27
#  19    0.61   -0.53    0.13   -0.44   -0.05    0.00    0.00      -0.29   -2.37   -0.29
#  20    1.91   -0.68    0.10   -0.70   -0.09    0.00    0.00       0.53   -2.34   -0.29
#  21    2.02   -1.55    1.22   -0.90   -0.10    0.00    0.00       0.70   -2.51   -0.28
#  22    2.32   -1.26    0.28   -3.47    0.52    0.00    0.00      -1.60  -12.29    1.84
#  23   -1.85   -1.44    1.06    2.94   -1.15    0.00    0.00      -0.43   11.92   -4.68
#  24    5.94   -1.51    0.96   -3.07    0.45    0.00    0.00       2.77  -12.42    1.84
#  25    0.77   -0.85    0.19   -2.05    0.38    0.00    0.00      -1.55   -8.98    1.68
#  26   -0.15   -0.50    0.05    0.50   -0.12    0.00    0.00      -0.22    1.88   -0.46
#  27    0.19   -0.32    0.01   -0.42   -0.03    0.00    0.00      -0.56   -2.00   -0.15
#  28   -0.10   -0.30    0.01    0.24   -0.01    0.00    0.00      -0.15    1.24   -0.05
#  29    0.14   -0.22    0.00   -0.25   -0.03    0.00    0.00      -0.36   -1.74   -0.20
#  30   -0.13   -0.47    0.04    0.47   -0.11    0.00    0.00      -0.21    1.89   -0.46
#  31   -0.15   -1.20    0.20    0.84   -0.39    0.00    0.00      -0.70    2.28   -1.05
#  32    0.13   -2.50    0.83   -1.12    0.34    0.00    0.00      -2.31   -2.25    0.69
#  33    0.10   -0.39    0.02   -0.16   -0.06    0.00    0.00      -0.48   -0.96   -0.34
#  34    0.11   -0.17    0.00   -0.09   -0.03    0.00    0.00      -0.18   -1.22   -0.43
#  35    0.10   -0.13    0.00   -0.07   -0.02    0.00    0.00      -0.12   -1.36   -0.47
#  36    0.08   -0.17    0.00   -0.09   -0.04    0.00    0.00      -0.21   -1.14   -0.47
#  37    0.10   -0.55    0.10   -0.20   -0.08    0.00    0.00      -0.64   -1.14   -0.47
#  38    0.10   -0.95    0.28   -0.26   -0.10    0.00    0.00      -0.92   -1.15   -0.42
#  39   -4.10   -0.78    0.44    0.79   -0.14    0.00    0.00      -3.80    1.55   -0.28
#  40   -3.10   -0.60    0.21    1.17   -0.12    0.00    0.00      -2.44    2.65   -0.28
#  41   -2.08   -0.41    0.07    0.77   -0.11    0.00    0.00      -1.76    1.93   -0.28
#  42   -2.96   -0.23    0.06    0.60   -0.04    0.00    0.00      -2.57    3.56   -0.23
#  43   -2.41   -0.18    0.01    0.62   -0.05    0.00    0.00      -2.02    3.30   -0.28
#  44   -1.18   -0.13    0.01    0.33   -0.03    0.00    0.00      -1.00    2.70   -0.28
#  45   -0.18   -0.33    0.19    0.64   -0.05    0.00    0.00       0.28    3.53   -0.27
#  46   -0.60   -0.23    0.03    0.23   -0.05    0.00    0.00      -0.62    1.19   -0.28
#  47   -2.16   -0.39    0.11    0.50   -0.11    0.00    0.00      -2.04    1.30   -0.28
#  48   -2.81   -0.56    0.31    1.32   -0.10    0.00    0.00      -1.84    3.70   -0.28
#  49  -10.37   -0.02    0.00    2.41    0.12    0.00    0.00      -7.86   10.68    0.53
#  50  -18.17   -0.05    0.00    3.01    0.17    0.00    0.00     -15.04    9.90    0.57
#  51   -0.31   -0.41    0.21    0.86   -0.05    0.00    0.00       0.30    3.78   -0.23
#  52   -0.90   -0.05    0.00    0.07   -0.01    0.00    0.00      -0.90    1.48   -0.28
#  53   -0.22   -0.04    0.00    0.13   -0.01    0.00    0.00      -0.15    2.93   -0.28
#  54   -0.35   -0.14    0.04    0.08   -0.03    0.00    0.00      -0.41    0.70   -0.28
#  55   -0.28   -0.25    0.10    0.25   -0.04    0.00    0.00      -0.24    1.55   -0.28
#  56   -1.43   -0.12    0.00    0.09   -0.03    0.00    0.00      -1.49    0.80   -0.28
#  57   -1.66   -0.50    0.34    0.16   -0.07    0.00    0.00      -1.73    0.63   -0.28
#  58   -1.09   -0.73    0.80    0.54   -0.09    0.00    0.00      -0.57    1.77   -0.28
#  59   -3.28   -0.75    0.73    0.57   -0.10    0.00    0.00      -2.82    1.61   -0.27
#  60   -0.60   -0.13    0.01    0.35   -0.03    0.00    0.00      -0.41    2.53   -0.24
#  61   -0.08   -0.28    0.07    0.13   -0.06    0.00    0.00      -0.23    0.52   -0.25
#  62   -0.16   -0.05    0.00    0.16   -0.02    0.00    0.00      -0.07    2.79   -0.27
#  63   -0.20   -0.17    0.02    0.37   -0.05    0.00    0.00      -0.03    1.76   -0.26
#  64   -0.12   -0.03    0.00    0.09   -0.01    0.00    0.00      -0.07    2.38   -0.28
#  65   -0.11   -0.08    0.00    0.12   -0.02    0.00    0.00      -0.09    1.40   -0.25
#  66   -0.08   -0.23    0.03    0.14   -0.07    0.00    0.00      -0.21    0.52   -0.25
#  67   -0.19   -0.14    0.01    0.33   -0.03    0.00    0.00      -0.01    2.47   -0.24
#  68   -0.14   -0.02    0.00    0.09   -0.01    0.00    0.00      -0.08    2.93   -0.20
#  69   -0.10   -0.02    0.00    0.04   -0.01    0.00    0.00      -0.08    1.67   -0.28
#  70   -0.09   -0.02    0.00    0.02   -0.01    0.00    0.00      -0.09    1.00   -0.28
#  71   -0.10   -0.15    0.03    0.15   -0.04    0.00    0.00      -0.12    0.91   -0.28
#  72   -0.10   -0.51    0.42    0.35   -0.08    0.00    0.00       0.08    1.16   -0.27

@<TRIPOS>MOLECULE
          T528790        27
   72    76     0     0     0



@<TRIPOS>ATOM
      1 C1          4.5571    -4.1719    94.7362 C.3        1          -0.1804
      2 C2          4.0262    -5.4043    94.0012 C.3        1           0.1279
      3 C3          3.5545    -6.4426    95.0211 C.3        1          -0.0863
      4 C4          4.7442    -7.1950    95.5589 C.ar       1          -0.1014
      5 C5          5.1780    -8.3451    94.9262 C.ar       1          -0.1019
      6 C6          6.2689    -9.0359    95.4193 C.ar       1          -0.1047
      7 C7          6.9270    -8.5760    96.5461 C.ar       1          -0.0312
      8 Cl1         8.2976    -9.4427    97.1656 Cl         1          -0.0557
      9 C8          6.4927    -7.4246    97.1785 C.ar       1          -0.1057
     10 C9          5.4048    -6.7318    96.6814 C.ar       1          -0.1024
     11 N1          2.9031    -5.0159    93.1445 N.pl3      1          -0.6558
     12 C10         2.9730    -5.2178    91.7811 C.ar       1           0.6959
     13 N2          4.1502    -5.1869    91.1640 N.ar       1          -0.6379
     14 H1          4.9600    -5.0223    91.6721 H          1           0.4333
     15 C11         4.2177    -5.3819    89.8509 C.ar       1           0.6928
     16 N3          5.4397    -5.3502    89.2104 N.pl3      1          -0.6555
     17 C12         5.5139    -5.5652    87.7631 C.3        1           0.1176
     18 C13         5.7635    -7.0575    87.4626 C.3        1          -0.1463
     19 C14         6.7128    -7.0450    86.2388 C.3        1          -0.1239
     20 C15         7.6421    -5.8428    86.5393 C.3        1          -0.1281
     21 C16         6.7083    -4.7928    87.1761 C.3        1          -0.1290
     22 N4          3.1079    -5.6078    89.1545 N.ar       1          -0.6185
     23 C17         1.9309    -5.6383    89.7714 C.ar       1           0.6782
     24 N5          1.8640    -5.4486    91.0857 N.ar       1          -0.6174
     25 N6          0.7788    -5.8724    89.0485 N.pl3      1          -0.5251
     26 C18        -0.5302    -5.9029    89.7152 C.3        1           0.1049
     27 C19        -1.2312    -7.2192    89.3649 C.3        1          -0.1273
     28 C20        -1.2973    -7.3680    87.8431 C.3        1           0.0878
     29 C21         0.1213    -7.4093    87.2709 C.3        1          -0.1209
     30 C22         0.8373    -6.0897    87.5965 C.3        1           0.1048
     31 C23        -2.0245    -6.2238    87.2695 C.1        1           0.2001
     32 N7         -2.5856    -5.3408    86.8270 N.1        1          -0.4021
     33 C24        -2.0168    -8.6455    87.4945 C.ar       1          -0.0933
     34 C25        -1.5183    -9.8599    87.9277 C.ar       1          -0.1084
     35 C26        -2.1782   -11.0316    87.6078 C.ar       1          -0.1147
     36 C27        -3.3369   -10.9891    86.8553 C.ar       1          -0.1069
     37 C28        -3.8360    -9.7747    86.4229 C.ar       1          -0.1128
     38 C29        -3.1785    -8.6025    86.7464 C.ar       1          -0.1055
     39 H2          4.8932    -3.4322    94.0097 H          1           0.0834
     40 H3          3.7636    -3.7447    95.3492 H          1           0.0937
     41 H4          5.3928    -4.4610    95.3735 H          1           0.0583
     42 H5          4.8198    -5.8315    93.3882 H          1           0.0874
     43 H6          3.0417    -5.9397    95.8409 H          1           0.1115
     44 H7          2.8706    -7.1410    94.5388 H          1           0.0974
     45 H8          4.6642    -8.7041    94.0468 H          1           0.1299
     46 H9          6.6073    -9.9347    94.9254 H          1           0.1375
     47 H10         7.0058    -7.0652    98.0582 H          1           0.1380
     48 H11         5.0685    -5.8306    97.1724 H          1           0.1344
     49 H12         2.1102    -4.6166    93.5357 H          1           0.4413
     50 H13         6.2495    -5.1856    89.7184 H          1           0.4429
     51 H14         4.5885    -5.2378    87.2895 H          1           0.0887
     52 H15         6.2433    -7.5428    88.3126 H          1           0.0867
     53 H16         4.8277    -7.5584    87.2145 H          1           0.0733
     54 H17         7.2849    -7.9712    86.1842 H          1           0.0821
     55 H18         6.1536    -6.8802    85.3178 H          1           0.0774
     56 H19         8.4253    -6.1319    87.2402 H          1           0.0758
     57 H20         8.0773    -5.4572    85.6174 H          1           0.0817
     58 H21         6.3626    -4.0913    86.4168 H          1           0.0907
     59 H22         7.2328    -4.2581    87.9680 H          1           0.0847
     60 H23        -0.3921    -5.8384    90.7945 H          1           0.1195
     61 H24        -1.1350    -5.0639    89.3713 H          1           0.0881
     62 H25        -0.6717    -8.0533    89.7880 H          1           0.1006
     63 H26        -2.2414    -7.2133    89.7741 H          1           0.1050
     64 H27         0.6682    -8.2417    87.7138 H          1           0.0992
     65 H28         0.0738    -7.5389    86.1896 H          1           0.1021
     66 H29         0.3416    -5.2655    87.0834 H          1           0.0882
     67 H30         1.8778    -6.1485    87.2775 H          1           0.1194
     68 H31        -0.6129    -9.8931    88.5156 H          1           0.1301
     69 H32        -1.7883   -11.9805    87.9456 H          1           0.1286
     70 H33        -3.8521   -11.9047    86.6048 H          1           0.1279
     71 H34        -4.7412    -9.7413    85.8347 H          1           0.1283
     72 H35        -3.5704    -7.6533    86.4117 H          1           0.1222
@<TRIPOS>BOND
     1    1    2 1
     2    1   39 1
     3    1   40 1
     4    1   41 1
     5    2    3 1
     6    2   11 1
     7    2   42 1
     8    3    4 1
     9    3   43 1
    10    3   44 1
    11    4   10 ar
    12    4    5 ar
    13    5    6 ar
    14    5   45 1
    15    6    7 ar
    16    6   46 1
    17    7    8 1
    18    7    9 ar
    19    9   10 ar
    20    9   47 1
    21   10   48 1
    22   11   12 1
    23   11   49 1
    24   12   24 ar
    25   12   13 ar
    26   13   14 1
    27   13   15 ar
    28   15   16 1
    29   15   22 ar
    30   16   17 1
    31   16   50 1
    32   17   21 1
    33   17   18 1
    34   17   51 1
    35   18   19 1
    36   18   52 1
    37   18   53 1
    38   19   20 1
    39   19   54 1
    40   19   55 1
    41   20   21 1
    42   20   56 1
    43   20   57 1
    44   21   58 1
    45   21   59 1
    46   22   23 ar
    47   23   24 ar
    48   23   25 1
    49   25   30 1
    50   25   26 1
    51   26   27 1
    52   26   60 1
    53   26   61 1
    54   27   28 1
    55   27   62 1
    56   27   63 1
    57   28   29 1
    58   28   31 1
    59   28   33 1
    60   29   30 1
    61   29   64 1
    62   29   65 1
    63   30   66 1
    64   30   67 1
    65   31   32 3
    66   33   38 ar
    67   33   34 ar
    68   34   35 ar
    69   34   68 1
    70   35   36 ar
    71   35   69 1
    72   36   37 ar
    73   36   70 1
    74   37   38 ar
    75   37   71 1
    76   38   72 1
##########                 Name:               T29571
##########          Protonation:                   36
##########               SMILES:   CCOc1cc(cc(c1n2cccc2)OCC)Cc3c[nH+]c(nc3N)N
##########            Long Name:   5-[(3,5-diethoxy-4-pyrrol-1-yl-phenyl)methyl]pyrimidin-1-ium-2,4-diamine
##########          FlexRecCode: 1
##########               Number:                  159
##########   Ligand Source File: /raidb/db2/rgc/tcams/tcams-0001228.db2.gz
##########           GlobalRank: 143
##########                 Rank:                    1
##########               Setnum:                  262
##########             Matchnum:                 2895
##########                Cloud:                    1
##########        Electrostatic:           -44.755161
##########        Van der Waals:           -29.891130
##########  Ligand Polar Desolv:            10.822968
########## Ligand Apolar Desolv:            -3.431875
##########      Internal Energy:             0.000000
##########      Receptor Energy: 0.0
########## Receptor Desolvation:             0.000000
########## Receptor Hydrophobic:             0.000000
##########         Total Energy: -67.26
##########        Ligand Charge:             1.000000
##########            Arbitrary:    +999.9990
##########     heavy atom count:   26
##########           pose count:    1
##########        Ligand Energy:             0.000000
# num electro vdwattr vdwrepu polsolv apolsol rdesolv rhydroe totalscore fullpol fullapo
#   1    2.30   -0.35    0.02   -0.37   -0.04    0.00    0.00       1.57   -1.84   -0.20
#   2   -0.33   -0.44    0.08    0.11   -0.02    0.00    0.00      -0.60    0.65   -0.11
#   3    0.04   -1.81    1.21   -0.77    0.20    0.00    0.00      -1.13   -3.25    0.84
#   4   -0.88   -1.50    0.77    0.44   -0.08    0.00    0.00      -1.25    1.64   -0.31
#   5    3.03   -0.83    0.10   -0.96   -0.10    0.00    0.00       1.24   -3.83   -0.40
#   6    0.24   -0.91    0.05    0.25   -0.12    0.00    0.00      -0.50    0.74   -0.36
#   7    0.86   -0.89    0.10   -0.24   -0.09    0.00    0.00      -0.26   -0.61   -0.22
#   8    5.54   -0.97    0.05   -2.44   -0.12    0.00    0.00       2.05   -7.08   -0.36
#   9   -5.07   -1.30    0.11    3.37   -0.40    0.00    0.00      -3.29    8.00   -0.94
#  10   15.54   -1.41    0.24   -6.43    0.41    0.00    0.00       8.35  -15.85    1.01
#  11  -16.78   -0.06    0.01    5.80    0.21    0.00    0.00     -10.82   15.72    0.58
#  12  -14.91   -0.88    0.05    5.05   -1.57    0.00    0.00     -12.25   15.93   -4.94
#  13   18.98   -1.24    0.22   -6.68    0.32    0.00    0.00      11.60  -19.92    0.95
#  14   11.05   -0.76    0.04   -3.68    0.55    0.00    0.00       7.20  -13.73    2.07
#  15  -13.49   -0.86    0.05    3.31   -0.62    0.00    0.00     -11.61   11.38   -2.13
#  16   27.36   -1.65    0.53   -5.42    0.27    0.00    0.00      21.10  -17.79    0.90
#  17    3.71   -1.25    0.12   -1.51   -0.16    0.00    0.00       0.92   -3.72   -0.39
#  18   -1.98   -1.30    0.12    0.52   -0.12    0.00    0.00      -2.76    1.36   -0.31
#  19    3.43   -1.51    0.30   -1.25    0.40    0.00    0.00       1.36   -2.65    0.84
#  20   -0.96   -1.37    0.17    0.30   -0.06    0.00    0.00      -1.91    0.54   -0.11
#  21    3.30   -1.93    0.53   -0.91   -0.12    0.00    0.00       0.88   -1.53   -0.20
#  22   -0.29   -1.42    0.32   -0.19   -0.20    0.00    0.00      -1.79   -0.57   -0.61
#  23    1.34   -1.54    0.25   -0.29    0.26    0.00    0.00       0.02   -0.82    0.73
#  24    0.01   -2.25    0.68   -0.01   -0.41    0.00    0.00      -1.97   -0.02   -0.92
#  25    1.30   -2.03    0.52   -0.04   -0.26    0.00    0.00      -0.51   -0.08   -0.51
#  26    1.82   -1.78    0.46    0.01   -0.22    0.00    0.00       0.30    0.03   -0.51
#  27    0.00   -1.28    0.19   -0.02   -0.30    0.00    0.00      -1.41   -0.05   -0.92
#  28   -1.41   -0.07    0.00    0.12   -0.02    0.00    0.00      -1.38    1.72   -0.28
#  29   -1.56   -0.17    0.02    0.01   -0.05    0.00    0.00      -1.74    0.07   -0.28
#  30   -0.80   -0.12    0.01    0.04   -0.03    0.00    0.00      -0.90    0.32   -0.28
#  31   -0.50   -0.10    0.01    0.17   -0.03    0.00    0.00      -0.44    1.71   -0.26
#  32   -0.16   -0.11    0.02    0.26   -0.03    0.00    0.00      -0.02    2.50   -0.26
#  33   -2.19   -0.11    0.00    0.55   -0.02    0.00    0.00      -1.77    5.18   -0.21
#  34   -2.67   -0.65    0.38    1.02   -0.08    0.00    0.00      -2.01    3.07   -0.24
#  35   -4.26   -0.33    0.06    1.60   -0.09    0.00    0.00      -3.03    4.99   -0.28
#  36   -5.16   -0.37    0.05    4.43   -0.12    0.00    0.00      -1.16   10.64   -0.28
#  37  -14.40   -0.04    0.00    4.20    0.20    0.00    0.00     -10.04   12.70    0.59
#  38   -8.20   -0.01    0.00    1.66    0.10    0.00    0.00      -6.47   10.41    0.60
#  39  -19.59   -0.05    0.00    2.46    0.08    0.00    0.00     -17.10   10.20    0.32
#  40  -14.43   -0.03    0.00    2.34    0.15    0.00    0.00     -11.96    9.13    0.60
#  41   -2.12   -0.45    0.28    1.17   -0.05    0.00    0.00      -1.17    3.58   -0.15
#  42   -1.25   -0.46    0.10    0.67   -0.11    0.00    0.00      -1.04    1.58   -0.26
#  43   -1.11   -0.54    0.09    0.93   -0.14    0.00    0.00      -0.78    1.71   -0.26
#  44   -1.83   -1.05    0.60    0.09   -0.17    0.00    0.00      -2.36    0.15   -0.28
#  45   -1.66   -0.84    0.67    0.08   -0.15    0.00    0.00      -1.89    0.16   -0.28
#  46   -1.41   -0.43    0.09    0.67   -0.12    0.00    0.00      -1.21    1.52   -0.28
#  47   -0.48   -1.00    1.34    0.30   -0.11    0.00    0.00       0.04    0.75   -0.28
#  48   -1.22   -0.46    0.09    0.06   -0.14    0.00    0.00      -1.67    0.12   -0.28
#  49   -2.67   -0.64    0.68    0.00   -0.09    0.00    0.00      -2.72    0.00   -0.28
#  50   -0.85   -0.16    0.01    0.05   -0.04    0.00    0.00      -0.99    0.35   -0.28

@<TRIPOS>MOLECULE
           T29571        36
   50    52     0     0     0



@<TRIPOS>ATOM
      1 C1          6.6337    -8.4558    91.9220 C.3        1          -0.1567
      2 C2          5.3599    -9.2370    92.2513 C.3        1           0.0549
      3 O1          5.4853    -9.8282    93.5463 O.3        1          -0.2938
      4 C3          5.6773    -8.9836    94.5943 C.ar       1           0.1891
      5 C4          5.1540    -7.7002    94.5567 C.ar       1          -0.2334
      6 C5          5.3485    -6.8407    95.6217 C.ar       1          -0.0127
      7 C6          4.7781    -5.4465    95.5755 C.3        1          -0.0315
      8 C7          3.3583    -5.5010    95.0731 C.ar       1          -0.2242
      9 C8          2.3032    -5.6492    95.9523 C.ar       1           0.2118
     10 N1          1.0665    -5.6933    95.4791 N.ar       1          -0.5697
     11 H1          0.3229    -5.7968    96.0932 H          1           0.4455
     12 C9          0.8309    -5.5974    94.1791 C.ar       1           0.6627
     13 N2         -0.4750    -5.6473    93.7241 N.pl3      1          -0.7900
     14 N3          1.8145    -5.4545    93.3033 N.ar       1          -0.5716
     15 C10         3.0790    -5.3973    93.7089 C.ar       1           0.5374
     16 N4          4.1052    -5.2424    92.7912 N.pl3      1          -0.7793
     17 C11         6.0641    -7.2560    96.7290 C.ar       1          -0.2409
     18 C12         6.5913    -8.5375    96.7760 C.ar       1           0.1905
     19 O2          7.2953    -8.9446    97.8654 O.3        1          -0.2927
     20 C13         8.0145    -7.9412    98.5852 C.3        1           0.0537
     21 C14         9.2544    -8.5653    99.2287 C.3        1          -0.1567
     22 C15         6.3940    -9.4078    95.7087 C.ar       1           0.0536
     23 N5          6.9218   -10.7092    95.7537 N.pl3      1          -0.3906
     24 C16         7.1086   -11.4533    96.8828 C.2        1          -0.0030
     25 C17         7.6329   -12.6427    96.5216 C.2        1          -0.1922
     26 C18         7.7751   -12.6337    95.1199 C.2        1          -0.1931
     27 C19         7.3271   -11.4413    94.6755 C.2        1           0.0007
     28 H2          6.5382    -8.0050    90.9342 H          1           0.0841
     29 H3          6.7825    -7.6733    92.6658 H          1           0.0718
     30 H4          7.4878    -9.1330    91.9311 H          1           0.0697
     31 H5          4.5059    -8.5599    92.2420 H          1           0.0680
     32 H6          5.2113   -10.0197    91.5074 H          1           0.0619
     33 H7          4.5939    -7.3713    93.6938 H          1           0.1405
     34 H8          4.7932    -5.0146    96.5761 H          1           0.1011
     35 H9          5.3773    -4.8308    94.9048 H          1           0.1147
     36 H10         2.4845    -5.7287    97.0139 H          1           0.2150
     37 H11        -1.2046    -5.7513    94.3548 H          1           0.4313
     38 H12        -0.6610    -5.5782    92.7745 H          1           0.4455
     39 H13         5.0258    -5.2054    93.0949 H          1           0.4274
     40 H14         3.9033    -5.1710    91.8452 H          1           0.4291
     41 H15         6.2131    -6.5809    97.5588 H          1           0.1292
     42 H16         8.3199    -7.1508    97.8996 H          1           0.0672
     43 H17         7.3745    -7.5218    99.3615 H          1           0.0605
     44 H18         9.8032    -7.8001    99.7777 H          1           0.0703
     45 H19         8.9491    -9.3558    99.9142 H          1           0.0727
     46 H20         9.8945    -8.9848    98.4523 H          1           0.0844
     47 H21         6.8771   -11.1432    97.8911 H          1           0.1541
     48 H22         7.8956   -13.4532    97.1853 H          1           0.1381
     49 H23         8.1670   -13.4360    94.5121 H          1           0.1387
     50 H24         7.2971   -11.1203    93.6447 H          1           0.1567
@<TRIPOS>BOND
     1    1    2 1
     2    1   28 1
     3    1   29 1
     4    1   30 1
     5    2    3 1
     6    2   31 1
     7    2   32 1
     8    3    4 1
     9    4   22 ar
    10    4    5 ar
    11    5    6 ar
    12    5   33 1
    13    6    7 1
    14    6   17 ar
    15    7    8 1
    16    7   34 1
    17    7   35 1
    18    8   15 ar
    19    8    9 ar
    20    9   10 ar
    21    9   36 1
    22   10   11 1
    23   10   12 ar
    24   12   13 1
    25   12   14 ar
    26   13   37 1
    27   13   38 1
    28   14   15 ar
    29   15   16 1
    30   16   39 1
    31   16   40 1
    32   17   18 ar
    33   17   41 1
    34   18   19 1
    35   18   22 ar
    36   19   20 1
    37   20   21 1
    38   20   42 1
    39   20   43 1
    40   21   44 1
    41   21   45 1
    42   21   46 1
    43   22   23 1
    44   23   27 1
    45   23   24 1
    46   24   25 2
    47   24   47 1
    48   25   26 1
    49   25   48 1
    50   26   27 2
    51   26   49 1
    52   27   50 1
##########                 Name:              T525342
##########          Protonation:                   97
##########               SMILES:   C[NH+](CC[C@H](c1ccc(c(c1)Cl)Cl)O)C[C@@H]2C[C@@H]2C(=O)c3ccccc3
##########            Long Name:   propyl]methyl-[(3R)-3-(3,4-dichlorophenyl)-3-hydroxy-propyl]-methyl-ammonium
##########          FlexRecCode: 1
##########               Number:                   47
##########   Ligand Source File: /raidb/db2/rgc/tcams/tcams-0000094.db2.gz
##########           GlobalRank: 144
##########                 Rank:                    1
##########               Setnum:                  440
##########             Matchnum:                   38
##########                Cloud:                    1
##########        Electrostatic:           -42.072605
##########        Van der Waals:           -26.629227
##########  Ligand Polar Desolv:             6.138296
########## Ligand Apolar Desolv:            -4.684486
##########      Internal Energy:             0.000000
##########      Receptor Energy: 0.0
########## Receptor Desolvation:             0.000000
########## Receptor Hydrophobic:             0.000000
##########         Total Energy: -67.25
##########        Ligand Charge:             1.000000
##########            Arbitrary:    +999.9990
##########     heavy atom count:   26
##########           pose count:    1
##########        Ligand Energy:             0.000000
# num electro vdwattr vdwrepu polsolv apolsol rdesolv rhydroe totalscore fullpol fullapo
#   1    1.96   -1.10    0.57   -0.65   -0.12    0.00    0.00       0.66   -2.44   -0.46
#   2   12.88   -1.38    1.11   -2.84    0.08    0.00    0.00       9.85  -11.32    0.33
#   3  -21.70   -0.10    0.03    4.63    0.16    0.00    0.00     -16.99   16.07    0.55
#   4    0.15   -0.47    0.06    0.06   -0.07    0.00    0.00      -0.27    0.27   -0.34
#   5    5.20   -0.88    0.26   -1.23   -0.05    0.00    0.00       3.30   -4.81   -0.19
#   6   -2.63   -0.29    0.01    0.61   -0.02    0.00    0.00      -2.32    3.64   -0.14
#   7    4.81   -0.15    0.00   -0.94    0.13    0.00    0.00       3.84  -12.24    1.64
#   8    1.53   -0.72    0.06   -0.35   -0.08    0.00    0.00       0.43   -1.47   -0.35
#   9    2.36   -1.73    0.57   -0.50   -0.16    0.00    0.00       0.54   -1.34   -0.44
#  10    2.06   -2.75    1.65   -0.64   -0.20    0.00    0.00       0.12   -1.47   -0.46
#  11    0.12   -2.09    0.67   -0.31   -0.12    0.00    0.00      -1.73   -0.74   -0.29
#  12    0.16   -5.48    3.75   -0.36   -0.52    0.00    0.00      -2.45   -0.65   -0.95
#  13    0.11   -1.30    0.27   -0.21   -0.09    0.00    0.00      -1.22   -0.70   -0.29
#  14    0.09   -2.23    0.43   -0.25   -0.34    0.00    0.00      -2.29   -0.69   -0.95
#  15    0.33   -0.66    0.06   -0.28   -0.09    0.00    0.00      -0.64   -1.36   -0.44
#  16   -0.46   -0.46    0.03    0.20   -0.06    0.00    0.00      -0.73    0.86   -0.24
#  17    4.09   -0.57    0.04   -0.72   -0.10    0.00    0.00       2.74   -2.48   -0.36
#  18    3.08   -1.16    0.33   -1.29   -0.16    0.00    0.00       0.80   -3.28   -0.41
#  19    2.63   -0.64    0.04   -1.67   -0.13    0.00    0.00       0.23   -4.90   -0.37
#  20   -2.64   -1.36    0.29    2.11   -0.09    0.00    0.00      -1.68    6.48   -0.29
#  21    0.09   -2.24    1.71   -1.98    0.10    0.00    0.00      -2.32   -6.66    0.33
#  22    1.23   -1.40    0.17   -0.84   -0.15    0.00    0.00      -0.98   -2.31   -0.41
#  23    0.34   -1.52    0.20   -0.34   -0.18    0.00    0.00      -1.50   -0.83   -0.44
#  24    0.95   -1.58    0.18   -0.94   -0.25    0.00    0.00      -1.64   -1.73   -0.47
#  25    0.65   -1.94    0.52   -0.60   -0.26    0.00    0.00      -1.63   -1.10   -0.47
#  26    1.68   -2.04    0.75   -0.71   -0.24    0.00    0.00      -0.57   -1.40   -0.47
#  27    0.65   -1.59    0.27   -0.44   -0.21    0.00    0.00      -1.31   -0.95   -0.46
#  28   -2.48   -0.10    0.00    0.47   -0.02    0.00    0.00      -2.13    4.77   -0.22
#  29   -4.58   -0.30    0.09    1.10   -0.05    0.00    0.00      -3.73    5.16   -0.23
#  30   -5.50   -0.75    0.74    1.22   -0.09    0.00    0.00      -4.38    3.94   -0.28
#  31   -2.63   -0.12    0.01    0.57   -0.04    0.00    0.00      -2.21    4.08   -0.28
#  32   -1.99   -0.06    0.00    0.21   -0.01    0.00    0.00      -1.84    4.00   -0.26
#  33   -2.83   -0.30    0.07    0.95   -0.05    0.00    0.00      -2.15    4.33   -0.21
#  34   -4.05   -0.73    0.61    1.14   -0.09    0.00    0.00      -3.11    3.74   -0.28
#  35   -1.98   -0.07    0.00    0.17   -0.02    0.00    0.00      -1.89    2.63   -0.28
#  36   -3.25    0.00    0.00    0.32    0.03    0.00    0.00      -2.90   10.01    1.01
#  37   -4.84   -0.42    0.10    1.65   -0.08    0.00    0.00      -3.58    4.93   -0.24
#  38   -5.15   -0.92    1.16    0.86   -0.12    0.00    0.00      -4.17    2.00   -0.28
#  39   -0.42   -0.06    0.00    0.18   -0.02    0.00    0.00      -0.32    2.77   -0.28
#  40   -1.45   -0.11    0.01    0.34   -0.03    0.00    0.00      -1.24    3.24   -0.26
#  41   -2.20   -0.13    0.01    0.41   -0.03    0.00    0.00      -1.94    3.14   -0.23
#  42   -3.79   -0.16    0.01    0.92   -0.03    0.00    0.00      -3.05    6.29   -0.22
#  43   -2.59   -1.04    1.72    0.57   -0.09    0.00    0.00      -1.43    1.74   -0.28
#  44   -3.29   -0.38    0.07    1.23   -0.12    0.00    0.00      -2.49    2.95   -0.28
#  45   -1.94   -0.22    0.01    0.87   -0.06    0.00    0.00      -1.34    3.40   -0.22
#  46   -0.33   -0.37    0.07    1.00   -0.06    0.00    0.00       0.32    3.44   -0.21
#  47   -1.15   -0.34    0.03    0.96   -0.13    0.00    0.00      -0.64    2.03   -0.28
#  48   -0.93   -0.48    0.13    0.68   -0.14    0.00    0.00      -0.74    1.33   -0.28
#  49   -2.45   -0.48    0.11    0.50   -0.13    0.00    0.00      -2.45    1.08   -0.28
#  50   -2.00   -0.27    0.02    0.30   -0.08    0.00    0.00      -2.03    0.99   -0.26

@<TRIPOS>MOLECULE
          T525342        97
   50    52     0     0     0



@<TRIPOS>ATOM
      1 C1          4.6998    -5.8797    91.9419 C.3        1          -0.0572
      2 N1          5.9640    -6.5804    92.2044 N.4        1          -0.3839
      3 H1          6.6670    -5.9126    92.4833 H          1           0.4250
      4 C2          6.4025    -7.2728    90.9853 C.3        1          -0.0066
      5 C3          6.6087    -6.2515    89.8649 C.3        1          -0.1809
      6 C4          7.0652    -6.9726    88.5951 C.3        1           0.1608
      7 O1          6.3429    -8.1979    88.4572 O.3        1          -0.5447
      8 C5          6.8017    -6.0966    87.3975 C.ar       1          -0.1185
      9 C6          7.3971    -4.8519    87.3075 C.ar       1          -0.0960
     10 C7          7.1562    -4.0476    86.2097 C.ar       1          -0.0916
     11 C8          6.3194    -4.4879    85.1999 C.ar       1          -0.0248
     12 Cl1         6.0169    -3.4783    83.8205 Cl         1          -0.0308
     13 C9          5.7237    -5.7344    85.2897 C.ar       1          -0.0290
     14 Cl2         4.6738    -6.2886    84.0232 Cl         1          -0.0318
     15 C10         5.9697    -6.5402    86.3872 C.ar       1          -0.0862
     16 C11         5.7659    -7.5610    93.2802 C.3        1           0.0234
     17 C12         5.8032    -6.8481    94.6333 C.3        1          -0.1786
     18 C13         7.1561    -6.7444    95.3404 C.3        1          -0.1304
     19 C14         6.0857    -7.6994    95.8729 C.3        1          -0.1872
     20 C15         6.3062    -9.1760    95.6674 C.2        1           0.4308
     21 O2          5.7602    -9.7484    94.7486 O.2        1          -0.4609
     22 C16         7.1844    -9.9231    96.5820 C.ar       1          -0.1812
     23 C17         7.3962   -11.2922    96.3913 C.ar       1          -0.0703
     24 C18         8.2207   -11.9850    97.2523 C.ar       1          -0.1316
     25 C19         8.8380   -11.3290    98.3032 C.ar       1          -0.0743
     26 C20         8.6331    -9.9743    98.4988 C.ar       1          -0.1304
     27 C21         7.8159    -9.2662    97.6429 C.ar       1          -0.0557
     28 H2          3.9403    -6.6011    91.6405 H          1           0.1245
     29 H3          4.3744    -5.3660    92.8465 H          1           0.1244
     30 H4          4.8467    -5.1521    91.1437 H          1           0.1241
     31 H5          7.3404    -7.7927    91.1801 H          1           0.1343
     32 H6          5.6429    -7.9943    90.6841 H          1           0.1381
     33 H7          5.6706    -5.7315    89.6701 H          1           0.0949
     34 H8          7.3682    -5.5301    90.1661 H          1           0.1018
     35 H9          8.1323    -7.1854    88.6618 H          1           0.1231
     36 H10         6.4657    -8.8120    89.1939 H          1           0.3803
     37 H11         8.0504    -4.5079    88.0957 H          1           0.1363
     38 H12         7.6210    -3.0752    86.1404 H          1           0.1491
     39 H13         5.5086    -7.5144    86.4559 H          1           0.1457
     40 H14         4.7998    -8.0494    93.1532 H          1           0.1314
     41 H15         6.5587    -8.3082    93.2412 H          1           0.1447
     42 H16         5.1121    -6.0123    94.7436 H          1           0.1372
     43 H17         8.0195    -7.1843    94.8415 H          1           0.1157
     44 H18         7.3553    -5.8404    95.9159 H          1           0.1239
     45 H19         5.5809    -7.4235    96.7987 H          1           0.1436
     46 H20         6.9149   -11.8056    95.5720 H          1           0.1315
     47 H21         8.3850   -13.0425    97.1067 H          1           0.1345
     48 H22         9.4827   -11.8771    98.9742 H          1           0.1339
     49 H23         9.1179    -9.4694    99.3212 H          1           0.1349
     50 H24         7.6604    -8.2083    97.7943 H          1           0.1348
@<TRIPOS>BOND
     1    1    2 1
     2    1   28 1
     3    1   29 1
     4    1   30 1
     5    2    3 1
     6    2    4 1
     7    2   16 1
     8    4    5 1
     9    4   31 1
    10    4   32 1
    11    5    6 1
    12    5   33 1
    13    5   34 1
    14    6    7 1
    15    6    8 1
    16    6   35 1
    17    7   36 1
    18    8   15 ar
    19    8    9 ar
    20    9   10 ar
    21    9   37 1
    22   10   11 ar
    23   10   38 1
    24   11   12 1
    25   11   13 ar
    26   13   14 1
    27   13   15 ar
    28   15   39 1
    29   16   17 1
    30   16   40 1
    31   16   41 1
    32   17   19 1
    33   17   18 1
    34   17   42 1
    35   18   19 1
    36   18   43 1
    37   18   44 1
    38   19   20 1
    39   19   45 1
    40   20   21 2
    41   20   22 1
    42   22   27 ar
    43   22   23 ar
    44   23   24 ar
    45   23   46 1
    46   24   25 ar
    47   24   47 1
    48   25   26 ar
    49   25   48 1
    50   26   27 ar
    51   26   49 1
    52   27   50 1
##########                 Name:              T525828
##########          Protonation:                   96
##########               SMILES:   c(cc1[C@H]2C[C@@H]2C(=O)NCCCCC[NH+]3CC[C@H](C3)NC(=O)Nc4ccc(c(c4)Cl)Cl)Cl)Cl
##########            Long Name:   rophenyl)carbamoylamino]pyrrolidin-1-ium-1-yl]pentyl]cyclopropanecarboxamide
##########          FlexRecCode: 1
##########               Number:                   92
##########   Ligand Source File: /raidb/db2/rgc/tcams/tcams-0000136.db2.gz
##########           GlobalRank: 145
##########                 Rank:                    1
##########               Setnum:                  158
##########             Matchnum:                 2822
##########                Cloud:                    1
##########        Electrostatic:           -44.800568
##########        Van der Waals:           -28.301249
##########  Ligand Polar Desolv:             9.412543
########## Ligand Apolar Desolv:            -3.539395
##########      Internal Energy:             0.000000
##########      Receptor Energy: 0.0
########## Receptor Desolvation:             0.000000
########## Receptor Hydrophobic:             0.000000
##########         Total Energy: -67.23
##########        Ligand Charge:             1.000000
##########            Arbitrary:    +999.9990
##########     heavy atom count:   36
##########           pose count:    1
##########        Ligand Energy:             0.000000
# num electro vdwattr vdwrepu polsolv apolsol rdesolv rhydroe totalscore fullpol fullapo
#   1    0.30   -6.19    3.92   -0.21   -0.58    0.00    0.00      -2.76   -0.34   -0.95
#   2    0.31   -1.62    0.20   -0.27   -0.17    0.00    0.00      -1.54   -0.49   -0.30
#   3    0.73   -1.99    0.64   -0.33   -0.25    0.00    0.00      -1.19   -0.61   -0.46
#   4    1.34   -1.94    0.62   -0.48   -0.19    0.00    0.00      -0.65   -0.99   -0.40
#   5   -1.83   -1.49    0.22    0.92   -0.28    0.00    0.00      -2.46    2.25   -0.68
#   6    9.63   -1.37    0.11   -4.77    0.77    0.00    0.00       4.37  -10.58    1.70
#   7  -12.27   -1.24    0.14    4.17   -0.77    0.00    0.00      -9.97   11.27   -2.09
#   8    8.48   -1.06    0.15   -2.19    0.10    0.00    0.00       5.49   -7.02    0.33
#   9   17.58   -1.54    0.29   -6.92    0.92    0.00    0.00      10.34  -16.08    2.14
#  10   -5.50   -1.24    0.53    1.37   -0.14    0.00    0.00      -4.98    3.21   -0.33
#  11    6.81   -2.12    1.11   -2.35   -0.15    0.00    0.00       3.30   -4.31   -0.28
#  12    0.52   -1.54    0.34    0.14   -0.21    0.00    0.00      -0.75    0.30   -0.45
#  13   14.02   -1.34    0.49   -4.24    0.15    0.00    0.00       9.08  -12.51    0.45
#  14  -21.15   -0.06    0.01    5.13    0.17    0.00    0.00     -15.91   17.28    0.56
#  15    0.21   -0.54    0.04    0.08   -0.09    0.00    0.00      -0.30    0.29   -0.32
#  16    2.11   -0.30    0.01   -0.79   -0.04    0.00    0.00       0.99   -4.35   -0.21
#  17    1.96   -0.46    0.04   -0.67   -0.05    0.00    0.00       0.83   -2.92   -0.22
#  18    1.04   -0.19    0.00   -0.31   -0.03    0.00    0.00       0.52   -2.42   -0.22
#  19   -0.62   -0.25    0.01    0.23   -0.07    0.00    0.00      -0.70    1.45   -0.42
#  20   10.72   -0.58    0.04   -1.74    0.45    0.00    0.00       8.88   -9.01    2.32
#  21   -7.26   -0.32    0.01    0.56   -0.08    0.00    0.00      -7.09    4.41   -0.64
#  22    3.94   -0.13    0.00   -0.12    0.02    0.00    0.00       3.71   -1.92    0.38
#  23    3.29   -0.33    0.02   -0.30   -0.07    0.00    0.00       2.61   -1.66   -0.37
#  24    2.31   -0.47    0.06   -0.27   -0.08    0.00    0.00       1.54   -1.29   -0.41
#  25    0.81   -0.19    0.00   -0.11   -0.04    0.00    0.00       0.48   -0.95   -0.37
#  26    0.30   -0.34    0.01   -0.03   -0.05    0.00    0.00      -0.11   -0.20   -0.40
#  27    0.50   -0.41    0.01   -0.12   -0.07    0.00    0.00      -0.09   -0.70   -0.42
#  28    0.08   -0.48    0.02   -0.05   -0.06    0.00    0.00      -0.50   -0.25   -0.30
#  29   -0.05   -2.11    1.08   -0.07   -0.23    0.00    0.00      -1.37   -0.27   -0.95
#  30    0.08   -0.75    0.09   -0.06   -0.07    0.00    0.00      -0.72   -0.28   -0.30
#  31    0.10   -1.98    0.51   -0.06   -0.25    0.00    0.00      -1.68   -0.21   -0.95
#  32    0.40   -1.15    0.28   -0.16   -0.12    0.00    0.00      -0.75   -0.58   -0.46
#  33    0.57   -0.56    0.03   -0.15   -0.10    0.00    0.00      -0.22   -0.68   -0.46
#  34    0.53   -0.60    0.08    0.14   -0.12    0.00    0.00       0.03    0.54   -0.45
#  35    0.69   -1.44    0.19   -0.44   -0.16    0.00    0.00      -1.17   -1.22   -0.45
#  36    0.06   -1.54    0.20   -0.11   -0.13    0.00    0.00      -1.51   -0.25   -0.30
#  37    0.15   -6.09    7.23   -0.16   -0.41    0.00    0.00       0.72   -0.38   -0.95
#  38   -1.36   -0.51    0.26    0.61   -0.14    0.00    0.00      -1.14    1.24   -0.28
#  39   -2.80   -0.42    0.07    0.64   -0.10    0.00    0.00      -2.60    1.42   -0.22
#  40   -6.42   -0.02    0.00    3.45    0.23    0.00    0.00      -2.77    8.94    0.59
#  41   -8.86   -0.06    0.01    4.14    0.20    0.00    0.00      -4.57   11.90    0.58
#  42   -5.90   -0.76    1.15    0.74   -0.10    0.00    0.00      -4.87    2.01   -0.26
#  43   -3.53   -1.02    1.11    1.32   -0.14    0.00    0.00      -2.25    2.61   -0.28
#  44   -6.74   -1.53    3.80    0.57   -0.16    0.00    0.00      -4.06    0.98   -0.28
#  45   -4.26   -0.38    0.06    1.80   -0.08    0.00    0.00      -2.86    5.27   -0.22
#  46   -5.90   -0.86    0.43    2.59   -0.15    0.00    0.00      -3.88    4.96   -0.28
#  47   -2.71   -0.11    0.00    0.57   -0.03    0.00    0.00      -2.28    5.62   -0.28
#  48   -2.82   -0.30    0.08    1.19   -0.07    0.00    0.00      -1.92    5.12   -0.28
#  49   -0.98   -0.08    0.00    0.24   -0.02    0.00    0.00      -0.83    3.20   -0.23
#  50   -0.76   -0.07    0.00    0.21   -0.02    0.00    0.00      -0.64    3.27   -0.28
#  51   -1.13   -0.27    0.07    0.38   -0.07    0.00    0.00      -1.02    1.61   -0.28
#  52   -2.28   -0.23    0.04    0.30   -0.05    0.00    0.00      -2.21    1.61   -0.28
#  53   -0.55   -0.04    0.00    0.07   -0.01    0.00    0.00      -0.52    1.84   -0.28
#  54   -0.28   -0.04    0.00    0.07   -0.01    0.00    0.00      -0.26    1.85   -0.28
#  55   -0.23   -0.04    0.00    0.02   -0.01    0.00    0.00      -0.26    0.41   -0.28
#  56   -0.20   -0.14    0.01    0.05   -0.04    0.00    0.00      -0.31    0.38   -0.28
#  57  -10.00   -0.02    0.00    1.47    0.12    0.00    0.00      -8.43    7.10    0.57
#  58   -3.14   -0.17    0.02    0.35   -0.04    0.00    0.00      -2.98    2.23   -0.28
#  59   -2.14   -0.34    0.13    0.44   -0.05    0.00    0.00      -1.96    1.83   -0.22
#  60   -1.56   -0.11    0.01    0.11   -0.03    0.00    0.00      -1.58    1.00   -0.28
#  61   -0.85   -0.03    0.00    0.02   -0.01    0.00    0.00      -0.87    0.59   -0.26
#  62   -0.69   -0.11    0.01    0.20   -0.02    0.00    0.00      -0.62    1.90   -0.21
#  63   -1.32   -0.64    0.54    0.36   -0.09    0.00    0.00      -1.14    1.15   -0.28
#  64   -1.70   -0.14    0.01    0.24   -0.05    0.00    0.00      -1.63    1.45   -0.28
#  65   -3.43   -0.13    0.01    0.72   -0.03    0.00    0.00      -2.86    6.16   -0.28
#  66   -2.63   -0.12    0.00    0.66   -0.03    0.00    0.00      -2.12    6.34   -0.26
#  67   -0.52   -0.28    0.05    0.58   -0.07    0.00    0.00      -0.23    2.47   -0.28

@<TRIPOS>MOLECULE
          T525828        96
   67    70     0     0     0



@<TRIPOS>ATOM
      1 Cl1         8.8675   -13.6057    97.5391 Cl         1          -0.0368
      2 C1          8.3671   -11.9453    97.4592 C.ar       1          -0.0427
      3 C2          8.8317   -11.0380    98.3950 C.ar       1          -0.0761
      4 C3          8.4349    -9.7166    98.3341 C.ar       1          -0.1035
      5 C4          7.5689    -9.2977    97.3324 C.ar       1           0.1713
      6 N1          7.1659    -7.9586    97.2687 N.am       1          -0.6758
      7 C5          6.8681    -7.4004    96.0787 C.2        1           0.7116
      8 O1          6.9494    -8.0599    95.0604 O.2        1          -0.5563
      9 N2          6.4801    -6.1111    96.0174 N.am       1          -0.7342
     10 C6          6.1563    -5.5043    94.7239 C.3        1           0.1516
     11 C7          5.6960    -4.0641    94.9137 C.3        1          -0.1585
     12 C8          4.2795    -4.0175    94.3297 C.3        1          -0.0134
     13 N3          4.2545    -5.1412    93.3608 N.4        1          -0.3871
     14 H1          4.7458    -4.8938    92.5149 H          1           0.4306
     15 C9          2.8721    -5.5374    93.0606 C.3        1          -0.0092
     16 C10         2.8792    -6.6954    92.0609 C.3        1          -0.1484
     17 C11         3.5740    -6.2523    90.7719 C.3        1          -0.1150
     18 C12         3.5811    -7.4105    89.7722 C.3        1          -0.1328
     19 C13         4.2759    -6.9673    88.4831 C.3        1           0.1176
     20 N4          5.6545    -6.5723    88.7824 N.am       1          -0.7315
     21 C14         6.6432    -7.4871    88.7343 C.2        1           0.5461
     22 O2          6.3916    -8.6371    88.4432 O.2        1          -0.5317
     23 C15         8.0614    -7.0806    89.0420 C.3        1          -0.1825
     24 C16         8.7229    -7.7021    90.2737 C.3        1          -0.1410
     25 C17         9.1525    -8.1396    88.8718 C.3        1          -0.0794
     26 C18        10.5002    -7.6774    88.3811 C.ar       1          -0.0426
     27 C19        11.6241    -7.8730    89.1620 C.ar       1          -0.1008
     28 C20        12.8613    -7.4490    88.7121 C.ar       1          -0.0281
     29 Cl2        14.2729    -7.6950    89.6921 Cl         1          -0.0429
     30 C21        12.9733    -6.8285    87.4791 C.ar       1          -0.0330
     31 Cl3        14.5256    -6.2962    86.9127 Cl         1          -0.0420
     32 C22        11.8480    -6.6334    86.6991 C.ar       1          -0.0935
     33 C23        10.6129    -7.0631    87.1480 C.ar       1          -0.0908
     34 C24         4.9669    -6.2189    94.0838 C.3        1          -0.0190
     35 C25         7.1040   -10.2090    96.3939 C.ar       1          -0.1246
     36 C26         7.5081   -11.5297    96.4558 C.ar       1          -0.0111
     37 Cl4         6.9332   -12.6688    95.2787 Cl         1          -0.0329
     38 H2          9.5052   -11.3637    99.1741 H          1           0.1500
     39 H3          8.7975    -9.0093    99.0654 H          1           0.1492
     40 H4          7.1013    -7.4324    98.0810 H          1           0.4137
     41 H5          6.4152    -5.5850    96.8297 H          1           0.4070
     42 H6          7.0217    -5.5405    94.0620 H          1           0.1309
     43 H7          5.6777    -3.8087    95.9732 H          1           0.1028
     44 H8          6.3517    -3.3822    94.3724 H          1           0.1204
     45 H9          3.5377    -4.1718    95.1133 H          1           0.1365
     46 H10         4.1070    -3.0695    93.8203 H          1           0.1373
     47 H11         2.3771    -5.8531    93.9790 H          1           0.1328
     48 H12         2.3365    -4.6905    92.6319 H          1           0.1311
     49 H13         3.4148    -7.5424    92.4898 H          1           0.0887
     50 H14         1.8534    -6.9895    91.8382 H          1           0.0895
     51 H15         3.0384    -5.4054    90.3430 H          1           0.0792
     52 H16         4.5998    -5.9584    90.9946 H          1           0.0783
     53 H17         4.1169    -8.2574    90.2011 H          1           0.0747
     54 H18         2.5555    -7.7046    89.5494 H          1           0.0753
     55 H19         4.2809    -7.7926    87.7710 H          1           0.0699
     56 H20         3.7402    -6.1205    88.0541 H          1           0.0697
     57 H21         5.8558    -5.6524    89.0152 H          1           0.4032
     58 H22         8.3182    -6.0496    88.7986 H          1           0.1284
     59 H23         9.4152    -7.0801    90.8409 H          1           0.1128
     60 H24         8.1325    -8.4050    90.8613 H          1           0.1094
     61 H25         8.8445    -9.1302    88.5372 H          1           0.1346
     62 H26        11.5360    -8.3567    90.1236 H          1           0.1435
     63 H27        11.9346    -6.1493    85.7377 H          1           0.1468
     64 H28         9.7351    -6.9150    86.5366 H          1           0.1417
     65 H29         5.3099    -6.9846    93.3880 H          1           0.1461
     66 H30         4.3253    -6.6547    94.8496 H          1           0.1378
     67 H31         6.4306    -9.8856    95.6140 H          1           0.1471
@<TRIPOS>BOND
     1    1    2 1
     2    2   36 ar
     3    2    3 ar
     4    3    4 ar
     5    3   38 1
     6    4    5 ar
     7    4   39 1
     8    5    6 1
     9    5   35 ar
    10    6    7 am
    11    6   40 1
    12    7    8 2
    13    7    9 am
    14    9   10 1
    15    9   41 1
    16   10   34 1
    17   10   11 1
    18   10   42 1
    19   11   12 1
    20   11   43 1
    21   11   44 1
    22   12   13 1
    23   12   45 1
    24   12   46 1
    25   13   14 1
    26   13   15 1
    27   13   34 1
    28   15   16 1
    29   15   47 1
    30   15   48 1
    31   16   17 1
    32   16   49 1
    33   16   50 1
    34   17   18 1
    35   17   51 1
    36   17   52 1
    37   18   19 1
    38   18   53 1
    39   18   54 1
    40   19   20 1
    41   19   55 1
    42   19   56 1
    43   20   21 am
    44   20   57 1
    45   21   22 2
    46   21   23 1
    47   23   25 1
    48   23   24 1
    49   23   58 1
    50   24   25 1
    51   24   59 1
    52   24   60 1
    53   25   26 1
    54   25   61 1
    55   26   33 ar
    56   26   27 ar
    57   27   28 ar
    58   27   62 1
    59   28   29 1
    60   28   30 ar
    61   30   31 1
    62   30   32 ar
    63   32   33 ar
    64   32   63 1
    65   33   64 1
    66   34   65 1
    67   34   66 1
    68   35   36 ar
    69   35   67 1
    70   36   37 1
##########                 Name:              T531372
##########          Protonation:                   22
##########               SMILES:   COc1ccc(cc1)Nc2nccc(n2)c3ccc4cc[nH+]c(c4c3)NCCCC[NH3+]
##########            Long Name:   -(4-methoxyanilino)pyrimidin-4-yl]isoquinolin-2-ium-1-yl]amino]butylammonium
##########          FlexRecCode: 1
##########               Number:                   24
##########   Ligand Source File: /raidb/db2/rgc/tcams/tcams-0000829.db2.gz
##########           GlobalRank: 146
##########                 Rank:                    1
##########               Setnum:                    8
##########             Matchnum:                 1899
##########                Cloud:                    1
##########        Electrostatic:           -67.292534
##########        Van der Waals:           -19.710733
##########  Ligand Polar Desolv:            23.129631
########## Ligand Apolar Desolv:            -3.347494
##########      Internal Energy:             0.000000
##########      Receptor Energy: 0.0
########## Receptor Desolvation:             0.000000
########## Receptor Hydrophobic:             0.000000
##########         Total Energy: -67.22
##########        Ligand Charge:             2.000000
##########            Arbitrary:    +999.9990
##########     heavy atom count:   31
##########           pose count:    1
##########        Ligand Energy:             0.000000
# num electro vdwattr vdwrepu polsolv apolsol rdesolv rhydroe totalscore fullpol fullapo
#   1   -0.42   -1.24    0.73    0.04    0.01    0.00    0.00      -0.89    0.14    0.03
#   2    3.52   -0.62    0.05   -0.60    0.22    0.00    0.00       2.57   -2.49    0.93
#   3   -1.71   -0.51    0.03    0.07   -0.06    0.00    0.00      -2.19    0.34   -0.31
#   4    1.31   -0.56    0.07   -0.29   -0.07    0.00    0.00       0.47   -1.81   -0.42
#   5    0.52   -0.29    0.01   -0.11   -0.05    0.00    0.00       0.08   -0.98   -0.40
#   6   -1.25   -0.32    0.01    0.22   -0.09    0.00    0.00      -1.43    1.67   -0.68
#   7    3.29   -0.34    0.01   -1.44    0.16    0.00    0.00       1.68   -9.57    1.07
#   8   -1.35   -0.44    0.02    1.24   -0.79    0.00    0.00      -1.31    7.28   -4.64
#   9    0.82   -0.38    0.01   -1.15    0.22    0.00    0.00      -0.47   -7.49    1.42
#  10   -0.25   -0.48    0.02    0.42   -0.20    0.00    0.00      -0.49    2.08   -0.99
#  11    0.31   -0.62    0.04   -1.09   -0.11    0.00    0.00      -1.47   -4.62   -0.45
#  12   -0.36   -0.87    0.26    0.97   -0.16    0.00    0.00      -0.16    4.37   -0.74
#  13    1.61   -0.70    0.13   -1.82    0.36    0.00    0.00      -0.42   -9.28    1.83
#  14    0.11   -1.23    0.51   -0.71   -0.12    0.00    0.00      -1.44   -2.53   -0.41
#  15    0.24   -2.27    1.32   -0.56   -0.16    0.00    0.00      -1.43   -1.50   -0.44
#  16    1.88   -2.17    1.06   -1.47   -0.20    0.00    0.00      -0.90   -3.40   -0.46
#  17   -0.71   -1.39    0.18    0.49   -0.18    0.00    0.00      -1.60    1.11   -0.40
#  18    2.79   -1.94    0.27   -3.39   -0.25    0.00    0.00      -2.53   -6.20   -0.46
#  19   -2.15   -4.23    3.37    3.07   -0.53    0.00    0.00      -0.46    5.59   -0.97
#  20   18.31   -4.35    5.44   -8.71    0.46    0.00    0.00      11.16  -18.32    0.96
#  21  -18.78   -0.13    0.03    9.45    0.23    0.00    0.00      -9.21   19.70    0.47
#  22  -13.78   -1.41    0.27    6.73   -0.77    0.00    0.00      -8.97   17.99   -2.07
#  23   15.69   -0.93    0.07   -8.12    0.56    0.00    0.00       7.28  -24.27    1.68
#  24   -1.97   -0.88    0.08    1.02   -0.17    0.00    0.00      -1.91    2.26   -0.37
#  25    3.00   -0.76    0.05   -2.30   -0.09    0.00    0.00      -0.11   -5.74   -0.22
#  26    4.50   -1.27    0.24   -2.91   -0.11    0.00    0.00       0.45   -6.52   -0.24
#  27    0.34   -1.63    0.35    0.16   -0.24    0.00    0.00      -1.03    0.32   -0.48
#  28   27.75   -2.42    4.01  -12.45    0.35    0.00    0.00      17.24  -30.22    0.86
#  29  -20.16   -0.05    0.00    5.54    0.14    0.00    0.00     -14.52   22.53    0.58
#  30  -25.54   -0.14    0.06    8.04    0.22    0.00    0.00     -17.37   22.24    0.60
#  31  -13.17   -0.01    0.00    3.72    0.10    0.00    0.00      -9.37   22.50    0.58
#  32    2.78   -1.04    0.09   -1.68   -0.14    0.00    0.00       0.02   -4.79   -0.40
#  33    0.37   -0.80    0.09    0.01   -0.11    0.00    0.00      -0.44    0.02   -0.42
#  34    2.02   -0.53    0.05   -0.21   -0.08    0.00    0.00       1.25   -1.23   -0.46
#  35    2.85   -0.65    0.07   -0.33   -0.09    0.00    0.00       1.85   -1.63   -0.46
#  36   -1.47   -0.40    0.20    0.26   -0.06    0.00    0.00      -1.47    1.27   -0.28
#  37   -0.83   -0.51    0.51    0.14   -0.06    0.00    0.00      -0.76    0.67   -0.27
#  38   -1.49   -0.53    0.42    0.21   -0.07    0.00    0.00      -1.47    0.78   -0.27
#  39    0.09   -0.27    0.10    0.21   -0.04    0.00    0.00       0.10    1.29   -0.22
#  40   -0.51   -0.04    0.00    0.05   -0.01    0.00    0.00      -0.51    1.17   -0.22
#  41   -1.60    0.00    0.00    0.53    0.04    0.00    0.00      -1.04    8.80    0.60
#  42   -0.18   -0.10    0.00    0.36   -0.03    0.00    0.00       0.05    3.04   -0.28
#  43   -0.15   -0.15    0.01    0.65   -0.03    0.00    0.00       0.32    4.06   -0.22
#  44   -0.12   -1.01    1.87    1.19   -0.08    0.00    0.00       1.85    3.33   -0.22
#  45   -3.73   -0.91    1.55    1.65   -0.10    0.00    0.00      -1.55    4.50   -0.28
#  46   -4.44   -0.36    0.03    2.58   -0.12    0.00    0.00      -2.31    5.89   -0.28
#  47   -5.37   -1.55    2.25    6.15   -0.17    0.00    0.00       1.32   10.43   -0.28
#  48   -7.07   -0.01    0.00    1.69    0.05    0.00    0.00      -5.34   15.73    0.44
#  49   -2.71   -0.42    0.07    2.39   -0.12    0.00    0.00      -0.80    5.29   -0.27
#  50   -1.77   -0.31    0.03    1.95   -0.10    0.00    0.00      -0.19    5.32   -0.27
#  51   -2.14   -0.36    0.07    0.95   -0.09    0.00    0.00      -1.58    3.03   -0.28
#  52   -1.73   -0.13    0.00    0.33   -0.03    0.00    0.00      -1.56    2.97   -0.28
#  53   -2.74   -0.26    0.02    1.27   -0.07    0.00    0.00      -1.77    4.87   -0.28
#  54   -2.83   -1.10    1.32    2.04   -0.12    0.00    0.00      -0.69    4.91   -0.28
#  55   -6.23   -0.75    0.20    3.00   -0.15    0.00    0.00      -3.93    5.46   -0.28
#  56   -4.63   -0.78    0.55    2.49   -0.13    0.00    0.00      -2.49    5.42   -0.28
#  57   -1.68   -0.09    0.00    0.43   -0.02    0.00    0.00      -1.35    4.86   -0.20
#  58   -2.87   -0.12    0.01    0.44   -0.04    0.00    0.00      -2.58    3.46   -0.28
#  59   -3.51   -0.20    0.03    0.32   -0.06    0.00    0.00      -3.43    1.57   -0.28

@<TRIPOS>MOLECULE
          T531372        22
   59    62     0     0     0



@<TRIPOS>ATOM
      1 C1          7.3419    -8.1843    93.8561 C.3        1           0.0250
      2 O1          5.9660    -8.5042    93.6396 O.3        1          -0.3148
      3 C2          5.4299    -8.1459    92.4424 C.ar       1           0.1235
      4 C3          4.0982    -8.4214    92.1689 C.ar       1          -0.1878
      5 C4          3.5531    -8.0582    90.9531 C.ar       1          -0.0687
      6 C5          4.3384    -7.4167    90.0044 C.ar       1           0.1088
      7 N1          3.7863    -7.0477    88.7714 N.pl3      1          -0.6300
      8 C6          2.4411    -6.7300    88.6822 C.ar       1           0.5708
      9 N2          1.7949    -6.9693    87.5500 N.ar       1          -0.5427
     10 C7          0.5094    -6.6799    87.4248 C.ar       1           0.2061
     11 C8         -0.1655    -6.1197    88.4947 C.ar       1          -0.2632
     12 C9          0.5418    -5.8790    89.6759 C.ar       1           0.2335
     13 N3          1.8327    -6.2004    89.7317 N.ar       1          -0.5681
     14 C10        -0.1360    -5.2804    90.8503 C.ar       1          -0.0200
     15 C11        -1.2179    -4.4064    90.6584 C.ar       1          -0.0291
     16 C12        -1.8567    -3.8442    91.7189 C.ar       1          -0.1020
     17 C13        -1.4331    -4.1380    93.0239 C.ar       1           0.0311
     18 C14        -2.0620    -3.5819    94.1546 C.ar       1          -0.1139
     19 C15        -1.6005    -3.9097    95.3922 C.ar       1           0.0782
     20 N4         -0.5775    -4.7363    95.5652 N.ar       1          -0.5113
     21 H1         -0.2884    -4.9366    96.4692 H          1           0.4361
     22 C16         0.0620    -5.2969    94.5565 C.ar       1           0.5040
     23 N5          1.1225    -6.1526    94.7957 N.pl3      1          -0.6904
     24 C17         1.8206    -6.1118    96.0831 C.3        1           0.0824
     25 C18         3.2945    -5.7715    95.8535 C.3        1          -0.1326
     26 C19         3.4024    -4.4062    95.1715 C.3        1          -0.1511
     27 C20         4.8764    -4.0659    94.9420 C.3        1          -0.0087
     28 N6          5.4879    -5.0910    94.0856 N.4        1          -0.6388
     29 H2          5.0070    -5.1189    93.1989 H          1           0.4375
     30 H3          6.4599    -4.8667    93.9342 H          1           0.4447
     31 H4          5.4166    -5.9913    94.5353 H          1           0.4375
     32 C21        -0.3413    -5.0194    93.2298 C.ar       1          -0.1337
     33 C22         0.3000    -5.5928    92.1272 C.ar       1          -0.0309
     34 C23         5.6714    -7.1409    90.2791 C.ar       1          -0.1024
     35 C24         6.2135    -7.5000    91.4974 C.ar       1          -0.1317
     36 H5          7.6423    -8.5240    94.8473 H          1           0.1051
     37 H6          7.9531    -8.6794    93.1016 H          1           0.0582
     38 H7          7.4797    -7.1054    93.7846 H          1           0.0572
     39 H8          3.4875    -8.9203    92.9069 H          1           0.1345
     40 H9          2.5165    -8.2734    90.7400 H          1           0.1347
     41 H10         4.3460    -7.0145    87.9799 H          1           0.4194
     42 H11        -0.0070    -6.8788    86.4973 H          1           0.1815
     43 H12        -1.2146    -5.8739    88.4189 H          1           0.1538
     44 H13        -1.5468    -4.1773    89.6555 H          1           0.1587
     45 H14        -2.6874    -3.1733    91.5573 H          1           0.1646
     46 H15        -2.8968    -2.9060    94.0414 H          1           0.1835
     47 H16        -2.0817    -3.4836    96.2600 H          1           0.2031
     48 H17         1.4039    -6.7794    94.1111 H          1           0.4389
     49 H18         1.3667    -5.3513    96.7186 H          1           0.0917
     50 H19         1.7437    -7.0845    96.5690 H          1           0.0917
     51 H20         3.8138    -5.7412    96.8115 H          1           0.0949
     52 H21         3.7483    -6.5321    95.2181 H          1           0.0949
     53 H22         2.8831    -4.4366    94.2136 H          1           0.0961
     54 H23         2.9487    -3.6457    95.8070 H          1           0.0962
     55 H24         4.9533    -3.0934    94.4562 H          1           0.1376
     56 H25         5.3957    -4.0357    95.8999 H          1           0.1376
     57 H26         1.1297    -6.2692    92.2700 H          1           0.1510
     58 H27         6.2827    -6.6419    89.5418 H          1           0.1300
     59 H28         7.2490    -7.2817    91.7129 H          1           0.1381
@<TRIPOS>BOND
     1    1    2 1
     2    1   36 1
     3    1   37 1
     4    1   38 1
     5    2    3 1
     6    3   35 ar
     7    3    4 ar
     8    4    5 ar
     9    4   39 1
    10    5    6 ar
    11    5   40 1
    12    6    7 1
    13    6   34 ar
    14    7    8 1
    15    7   41 1
    16    8   13 ar
    17    8    9 ar
    18    9   10 ar
    19   10   11 ar
    20   10   42 1
    21   11   12 ar
    22   11   43 1
    23   12   13 ar
    24   12   14 1
    25   14   33 ar
    26   14   15 ar
    27   15   16 ar
    28   15   44 1
    29   16   17 ar
    30   16   45 1
    31   17   32 ar
    32   17   18 ar
    33   18   19 ar
    34   18   46 1
    35   19   20 ar
    36   19   47 1
    37   20   21 1
    38   20   22 ar
    39   22   23 1
    40   22   32 ar
    41   23   24 1
    42   23   48 1
    43   24   25 1
    44   24   49 1
    45   24   50 1
    46   25   26 1
    47   25   51 1
    48   25   52 1
    49   26   27 1
    50   26   53 1
    51   26   54 1
    52   27   28 1
    53   27   55 1
    54   27   56 1
    55   28   29 1
    56   28   30 1
    57   28   31 1
    58   32   33 ar
    59   33   57 1
    60   34   35 ar
    61   34   58 1
    62   35   59 1
##########                 Name:              T541246
##########          Protonation:                   20
##########               SMILES:   Cc1ccc(cc1)NC(=[NH2+])Nc2c(cccn2)OCc3c(cccc3Cl)F
##########            Long Name:   -fluoro-phenyl)methoxy]-2-pyridyl]amino]-(4-methylanilino)methylene]ammonium
##########          FlexRecCode: 1
##########               Number:                  261
##########   Ligand Source File: /raidb/db2/rgc/tcams/tcams-0002078.db2.gz
##########           GlobalRank: 147
##########                 Rank:                    1
##########               Setnum:                  179
##########             Matchnum:                 3889
##########                Cloud:                    1
##########        Electrostatic:           -40.439304
##########        Van der Waals:           -27.961090
##########  Ligand Polar Desolv:             5.627987
########## Ligand Apolar Desolv:            -4.433999
##########      Internal Energy:             0.000000
##########      Receptor Energy: 0.0
########## Receptor Desolvation:             0.000000
########## Receptor Hydrophobic:             0.000000
##########         Total Energy: -67.21
##########        Ligand Charge:             1.000000
##########            Arbitrary:    +999.9990
##########     heavy atom count:   27
##########           pose count:    1
##########        Ligand Energy:             0.000000
# num electro vdwattr vdwrepu polsolv apolsol rdesolv rhydroe totalscore fullpol fullapo
#   1    2.81   -2.09    0.70   -0.87   -0.12    0.00    0.00       0.43   -1.43   -0.20
#   2    1.20   -2.09    0.30   -0.86   -0.23    0.00    0.00      -1.68   -1.54   -0.41
#   3    1.40   -1.79    0.38   -0.71   -0.20    0.00    0.00      -0.93   -1.57   -0.45
#   4    1.95   -1.26    0.13   -0.79   -0.18    0.00    0.00      -0.15   -2.04   -0.46
#   5   -1.67   -1.58    0.36    1.02   -0.27    0.00    0.00      -2.15    2.41   -0.64
#   6   12.40   -1.19    0.10   -4.59    0.33    0.00    0.00       7.06  -12.36    0.88
#   7  -21.38   -1.09    0.10    5.96   -1.60    0.00    0.00     -18.01   16.67   -4.47
#   8   30.43   -2.32    1.31   -8.62    0.36    0.00    0.00      21.16  -18.24    0.76
#   9  -15.11   -0.03    0.00    5.81    0.26    0.00    0.00      -9.06   13.08    0.59
#  10  -26.84   -0.17    0.09    4.32    0.18    0.00    0.00     -22.42   11.48    0.48
#  11   16.89   -0.85    0.06   -3.49    0.30    0.00    0.00      12.90  -12.52    1.07
#  12   -5.55   -0.61    0.02    1.23   -0.46    0.00    0.00      -5.37    5.43   -2.03
#  13   -1.06   -0.48    0.01    0.13   -0.05    0.00    0.00      -1.46    0.73   -0.31
#  14    3.55   -0.33    0.01   -0.71    0.13    0.00    0.00       2.66   -4.36    0.83
#  15   -0.86   -0.22    0.01    0.17   -0.01    0.00    0.00      -0.92    1.31   -0.08
#  16    2.41   -0.44    0.02   -0.23   -0.06    0.00    0.00       1.70   -1.51   -0.39
#  17   -2.31   -0.47    0.03    0.20   -0.06    0.00    0.00      -2.63    1.07   -0.34
#  18    1.07   -0.27    0.02   -0.25   -0.09    0.00    0.00       0.48   -1.33   -0.45
#  19    3.35   -0.94    0.16   -0.43   -0.11    0.00    0.00       2.03   -1.82   -0.47
#  20    1.77   -1.87    0.94   -0.22   -0.14    0.00    0.00       0.49   -0.75   -0.47
#  21    4.28   -2.53    1.99   -0.46   -0.14    0.00    0.00       3.15   -1.54   -0.46
#  22   -0.29   -1.01    0.20   -0.02   -0.07    0.00    0.00      -1.18   -0.08   -0.29
#  23    0.57   -2.52    0.70   -0.18   -0.28    0.00    0.00      -1.71   -0.61   -0.94
#  24    0.99   -0.62    0.03   -0.57   -0.11    0.00    0.00      -0.27   -2.22   -0.43
#  25    1.89   -1.23    0.16   -0.84   -0.18    0.00    0.00      -0.19   -2.27   -0.48
#  26   -2.34   -1.38    0.26    0.69   -0.42    0.00    0.00      -3.17    1.64   -0.98
#  27    9.52   -0.85    0.03   -2.95    0.44    0.00    0.00       6.19   -8.43    1.27
#  28    2.31   -3.24    1.95   -1.33   -0.20    0.00    0.00      -0.50   -2.54   -0.38
#  29    1.34   -3.46    1.37   -0.93   -0.26    0.00    0.00      -1.95   -1.59   -0.45
#  30   -1.52   -0.45    0.08    0.31   -0.14    0.00    0.00      -1.72    0.64   -0.28
#  31   -2.03   -1.19    0.77    0.44   -0.18    0.00    0.00      -2.19    0.70   -0.28
#  32   -1.82   -1.05    1.34    0.44   -0.14    0.00    0.00      -1.23    0.86   -0.28
#  33   -2.27   -0.74    0.68    0.52   -0.09    0.00    0.00      -1.90    1.68   -0.28
#  34   -2.79   -0.22    0.03    0.53   -0.06    0.00    0.00      -2.51    2.64   -0.28
#  35   -8.60   -0.02    0.00    2.10    0.10    0.00    0.00      -6.42    8.50    0.40
#  36  -15.88   -0.02    0.00    2.19    0.11    0.00    0.00     -13.60   10.48    0.54
#  37   -0.36   -0.12    0.02    0.14   -0.02    0.00    0.00      -0.35    1.27   -0.22
#  38   -0.38   -0.04    0.00    0.05   -0.01    0.00    0.00      -0.38    1.17   -0.24
#  39   -2.73   -0.31    0.13    0.46   -0.06    0.00    0.00      -2.52    2.13   -0.28
#  40   -4.75   -0.45    0.22    0.82   -0.08    0.00    0.00      -4.24    2.81   -0.28
#  41   -6.43   -0.85    0.73    0.74   -0.10    0.00    0.00      -5.91    2.16   -0.28
#  42   -0.34   -0.09    0.00    0.24   -0.02    0.00    0.00      -0.22    2.54   -0.22
#  43   -2.77   -0.47    0.22    1.16   -0.11    0.00    0.00      -1.97    3.09   -0.28
#  44   -5.56   -0.58    0.52    1.71   -0.12    0.00    0.00      -4.03    4.02   -0.28
#  45   -2.24   -0.86    0.41    1.91   -0.13    0.00    0.00      -0.91    3.54   -0.24
#  46   -2.66   -1.21    1.06    1.38   -0.18    0.00    0.00      -1.61    2.20   -0.28

@<TRIPOS>MOLECULE
          T541246        20
   46    48     0     0     0



@<TRIPOS>ATOM
      1 C1          8.7683    -8.2961    99.3798 C.3        1          -0.1266
      2 C2          7.6589    -7.7511    98.5176 C.ar       1          -0.0707
      3 C3          7.7992    -7.7344    97.1419 C.ar       1          -0.0864
      4 C4          6.7846    -7.2355    96.3489 C.ar       1          -0.1121
      5 C5          5.6223    -6.7504    96.9344 C.ar       1           0.0986
      6 N1          4.5925    -6.2449    96.1340 N.pl3      1          -0.6059
      7 C6          4.8866    -5.6533    94.9263 C.cat      1           0.7392
      8 N2          6.0236    -5.0381    94.7617 N.pl3      1          -0.7650
      9 H1          6.6628    -4.9971    95.4903 H          1           0.4410
     10 H2          6.2308    -4.6214    93.9107 H          1           0.4474
     11 N3          3.9793    -5.7118    93.8920 N.pl3      1          -0.6116
     12 C7          2.7624    -6.3703    94.0680 C.ar       1           0.3062
     13 C8          2.1406    -6.9790    92.9770 C.ar       1           0.0894
     14 O1          2.7123    -6.9348    91.7439 O.3        1          -0.3054
     15 C9          3.6070    -7.9963    91.4052 C.3        1           0.1018
     16 C10         4.9709    -7.4282    91.1083 C.ar       1          -0.1395
     17 C11         6.1018    -8.0334    91.6298 C.ar       1           0.1386
     18 F1          5.9832    -9.1337    92.4046 F          1          -0.1250
     19 C12         7.3543    -7.5105    91.3563 C.ar       1          -0.1493
     20 C13         7.4751    -6.3850    90.5630 C.ar       1          -0.0562
     21 C14         6.3463    -5.7810    90.0424 C.ar       1          -0.1204
     22 C15         5.0941    -6.3057    90.3101 C.ar       1           0.0115
     23 Cl1         3.6772    -5.5504    89.6499 Cl         1          -0.0432
     24 C16         0.9311    -7.6302    93.1694 C.ar       1          -0.1250
     25 C17         0.3859    -7.6496    94.4462 C.ar       1          -0.1199
     26 C18         1.0572    -7.0260    95.4783 C.ar       1           0.1079
     27 N4          2.2098    -6.4175    95.2688 N.ar       1          -0.4923
     28 C19         5.4846    -6.7686    98.3163 C.ar       1          -0.1522
     29 C20         6.5008    -7.2740    99.1034 C.ar       1          -0.0867
     30 H3          9.5934    -8.6227    98.7468 H          1           0.0811
     31 H4          9.1169    -7.5175   100.0583 H          1           0.0754
     32 H5          8.3967    -9.1422    99.9579 H          1           0.0743
     33 H6          8.7034    -8.1115    96.6873 H          1           0.1412
     34 H7          6.8948    -7.2225    95.2746 H          1           0.1375
     35 H8          3.6712    -6.3113    96.4300 H          1           0.4492
     36 H9          4.1865    -5.2949    93.0409 H          1           0.4529
     37 H10         3.6775    -8.6926    92.2408 H          1           0.0921
     38 H11         3.2324    -8.5205    90.5260 H          1           0.0889
     39 H12         8.2368    -7.9818    91.7631 H          1           0.1510
     40 H13         8.4522    -5.9773    90.3501 H          1           0.1524
     41 H14         6.4418    -4.9014    89.4230 H          1           0.1493
     42 H15         0.4249    -8.1106    92.3451 H          1           0.1592
     43 H16        -0.5547    -8.1477    94.6300 H          1           0.1594
     44 H17         0.6353    -7.0391    96.4723 H          1           0.1817
     45 H18         4.5823    -6.3917    98.7747 H          1           0.1277
     46 H19         6.3925    -7.2924   100.1778 H          1           0.1387
@<TRIPOS>BOND
     1    1    2 1
     2    1   30 1
     3    1   31 1
     4    1   32 1
     5    2   29 ar
     6    2    3 ar
     7    3    4 ar
     8    3   33 1
     9    4    5 ar
    10    4   34 1
    11    5    6 1
    12    5   28 ar
    13    6    7 1
    14    6   35 1
    15    7    8 2
    16    7   11 1
    17    8    9 1
    18    8   10 1
    19   11   12 1
    20   11   36 1
    21   12   27 ar
    22   12   13 ar
    23   13   14 1
    24   13   24 ar
    25   14   15 1
    26   15   16 1
    27   15   37 1
    28   15   38 1
    29   16   22 ar
    30   16   17 ar
    31   17   18 1
    32   17   19 ar
    33   19   20 ar
    34   19   39 1
    35   20   21 ar
    36   20   40 1
    37   21   22 ar
    38   21   41 1
    39   22   23 1
    40   24   25 ar
    41   24   42 1
    42   25   26 ar
    43   25   43 1
    44   26   27 ar
    45   26   44 1
    46   28   29 ar
    47   28   45 1
    48   29   46 1
##########                 Name:              T535678
##########          Protonation:                   43
##########               SMILES:   c1ccc(cc1)c2ccccc2CNc3[nH+]c(nc(n3)N4CC[NH2+]CC4)NCCCc5ccc(cc5)O
##########            Long Name:   ylamino]-4-piperazin-4-ium-1-yl-1,3,5-triazin-1-ium-2-yl]amino]propyl]phenol
##########          FlexRecCode: 1
##########               Number:                  269
##########   Ligand Source File: /raidb/db2/rgc/tcams/tcams-0001437.db2.gz
##########           GlobalRank: 148
##########                 Rank:                    1
##########               Setnum:                  417
##########             Matchnum:                  361
##########                Cloud:                    1
##########        Electrostatic:           -48.678036
##########        Van der Waals:           -26.195351
##########  Ligand Polar Desolv:            11.915724
########## Ligand Apolar Desolv:            -4.231726
##########      Internal Energy:             0.000000
##########      Receptor Energy: 0.0
########## Receptor Desolvation:             0.000000
########## Receptor Hydrophobic:             0.000000
##########         Total Energy: -67.19
##########        Ligand Charge:             2.000000
##########            Arbitrary:    +999.9990
##########     heavy atom count:   37
##########           pose count:    1
##########        Ligand Energy:             0.000000
# num electro vdwattr vdwrepu polsolv apolsol rdesolv rhydroe totalscore fullpol fullapo
#   1    5.72   -1.23    0.57   -1.11    0.28    0.00    0.00       4.23   -4.71    1.19
#   2   -0.97   -0.77    0.22    0.04   -0.06    0.00    0.00      -1.54    0.19   -0.31
#   3    0.37   -0.56    0.17   -0.31   -0.06    0.00    0.00      -0.38   -2.37   -0.46
#   4    0.17   -0.19    0.01   -0.16   -0.04    0.00    0.00      -0.22   -1.83   -0.46
#   5    0.19   -0.16    0.00   -0.10   -0.02    0.00    0.00      -0.10   -1.54   -0.36
#   6    0.08   -0.07    0.00   -0.09   -0.01    0.00    0.00      -0.09   -2.02   -0.23
#   7    0.14   -0.12    0.00   -0.25   -0.02    0.00    0.00      -0.24   -3.53   -0.22
#   8   -0.13   -0.09    0.00    0.18   -0.02    0.00    0.00      -0.06    3.05   -0.38
#   9    1.72   -0.31    0.01   -2.84    0.22    0.00    0.00      -1.20  -22.30    1.73
#  10   -3.58   -0.43    0.04    3.40   -0.70    0.00    0.00      -1.27   23.49   -4.81
#  11    4.41   -0.43    0.06   -2.66    0.23    0.00    0.00       1.60  -21.12    1.84
#  12   -7.33   -0.81    0.26    3.82   -0.82    0.00    0.00      -4.88   21.84   -4.68
#  13    5.51   -1.01    0.33   -4.48    0.40    0.00    0.00       0.75  -20.71    1.84
#  14   -4.79   -0.88    0.17    5.64   -1.18    0.00    0.00      -1.05   23.03   -4.81
#  15    3.74   -1.15    0.12   -6.72    0.54    0.00    0.00      -3.47  -20.80    1.68
#  16   -0.36   -1.09    0.25    1.45   -0.11    0.00    0.00       0.13    4.19   -0.33
#  17    0.89   -1.40    0.18   -0.79   -0.14    0.00    0.00      -1.26   -2.05   -0.37
#  18    0.64   -1.56    0.23   -1.04   -0.23    0.00    0.00      -1.97   -2.01   -0.45
#  19    0.98   -2.13    0.66   -1.63   -0.26    0.00    0.00      -2.39   -2.93   -0.47
#  20    1.21   -2.58    1.14   -1.35   -0.26    0.00    0.00      -1.83   -2.46   -0.47
#  21    1.63   -1.97    0.39   -1.44   -0.25    0.00    0.00      -1.63   -2.65   -0.46
#  22    0.27   -1.46    0.19   -0.27   -0.16    0.00    0.00      -1.43   -0.64   -0.38
#  23    0.80   -1.27    0.12   -0.43   -0.13    0.00    0.00      -0.91   -1.10   -0.33
#  24    2.08   -2.68    1.45   -1.05   -0.19    0.00    0.00      -0.39   -2.48   -0.46
#  25    3.09   -2.10    0.52   -1.29   -0.22    0.00    0.00       0.00   -2.76   -0.47
#  26    3.07   -1.34    0.18   -1.22   -0.19    0.00    0.00       0.50   -2.98   -0.47
#  27    1.99   -1.00    0.06   -1.02   -0.17    0.00    0.00      -0.14   -2.89   -0.47
#  28    1.23   -1.31    0.15   -0.99   -0.14    0.00    0.00      -1.06   -2.61   -0.37
#  29    4.43   -0.68    0.06   -4.98    0.23    0.00    0.00      -0.95  -21.60    0.99
#  30   -4.38   -0.01    0.00    3.22    0.07    0.00    0.00      -1.11   17.30    0.36
#  31   10.08   -0.78    0.11   -4.30    0.36    0.00    0.00       5.47  -20.20    1.70
#  32   -1.69   -0.37    0.03    0.57   -0.09    0.00    0.00      -1.56    2.88   -0.48
#  33    0.43   -0.38    0.03    0.07   -0.09    0.00    0.00       0.07    0.37   -0.48
#  34   17.84   -1.87    1.41   -6.37    0.25    0.00    0.00      11.26  -22.43    0.89
#  35  -21.57   -0.13    0.02    7.54    0.19    0.00    0.00     -13.94   22.33    0.56
#  36  -14.57   -0.03    0.00    6.05    0.15    0.00    0.00      -8.40   23.11    0.57
#  37    0.66   -0.84    0.36    0.09   -0.11    0.00    0.00       0.15    0.38   -0.48
#  38   -2.49   -0.83    0.23    0.72   -0.12    0.00    0.00      -2.49    2.81   -0.48
#  39    0.22   -0.28    0.00   -0.20   -0.05    0.00    0.00      -0.32   -1.81   -0.46
#  40    1.26   -0.49    0.02   -0.47   -0.09    0.00    0.00       0.23   -2.39   -0.46
#  41   -7.26   -0.02    0.00    0.98    0.22    0.00    0.00      -6.08    5.37    1.22
#  42   -0.32   -0.14    0.05    0.13   -0.03    0.00    0.00      -0.30    1.25   -0.28
#  43   -0.17   -0.02    0.00    0.09   -0.01    0.00    0.00      -0.11    3.49   -0.28
#  44   -0.07   -0.01    0.00    0.06   -0.01    0.00    0.00      -0.02    3.10   -0.28
#  45   -0.07   -0.02    0.00    0.08   -0.01    0.00    0.00      -0.02    2.99   -0.28
#  46    0.00   -0.04    0.00    0.10   -0.01    0.00    0.00       0.04    2.09   -0.28
#  47   -0.18   -0.05    0.00    0.11   -0.01    0.00    0.00      -0.13    2.23   -0.28
#  48   -0.23   -0.02    0.00    0.12   -0.01    0.00    0.00      -0.14    4.91   -0.27
#  49   -0.06   -0.02    0.00    0.10   -0.01    0.00    0.00       0.01    4.75   -0.27
#  50   -1.01   -0.01    0.00    1.43    0.05    0.00    0.00       0.46   15.12    0.58
#  51   -3.94   -0.02    0.00    3.38    0.15    0.00    0.00      -0.43   13.14    0.58
#  52   -0.53   -0.22    0.03    0.80   -0.03    0.00    0.00       0.04    4.23   -0.18
#  53    0.48   -1.03    1.19    2.16   -0.10    0.00    0.00       2.70    5.68   -0.26
#  54   -0.99   -0.29    0.02    1.94   -0.11    0.00    0.00       0.57    4.87   -0.28
#  55   -0.76   -0.52    0.12    1.20   -0.15    0.00    0.00      -0.11    2.22   -0.28
#  56   -2.43   -0.90    1.07    0.79   -0.15    0.00    0.00      -1.61    1.45   -0.28
#  57   -2.70   -0.43    0.05    0.79   -0.15    0.00    0.00      -2.44    1.51   -0.28
#  58   -2.61   -1.97    6.11    1.04   -0.12    0.00    0.00       2.46    2.41   -0.28
#  59   -4.57   -0.60    0.16    1.46   -0.15    0.00    0.00      -3.70    2.69   -0.28
#  60   -4.38   -0.29    0.03    0.79   -0.08    0.00    0.00      -3.93    2.74   -0.28
#  61   -1.92   -0.17    0.01    0.68   -0.05    0.00    0.00      -1.46    3.69   -0.28
#  62   -0.32   -0.54    0.20    1.49   -0.08    0.00    0.00       0.75    4.45   -0.24
#  63   -2.56   -0.19    0.02    1.01   -0.05    0.00    0.00      -1.77    5.22   -0.28
#  64   -1.74   -0.05    0.00    0.19   -0.01    0.00    0.00      -1.61    3.98   -0.24
#  65   -2.96   -0.11    0.00    0.96   -0.03    0.00    0.00      -2.14    8.40   -0.28
#  66   -1.74   -0.05    0.00    0.24   -0.01    0.00    0.00      -1.56    5.59   -0.28
#  67   -6.13   -0.40    0.29    1.67   -0.06    0.00    0.00      -4.63    8.23   -0.28
#  68   -2.45   -0.08    0.00    0.39   -0.02    0.00    0.00      -2.15    5.50   -0.28
#  69   -2.92   -0.14    0.01    0.53   -0.04    0.00    0.00      -2.56    3.64   -0.24
#  70   -4.37   -0.68    0.65    1.62   -0.09    0.00    0.00      -2.86    5.15   -0.28
#  71   -0.29   -0.06    0.00    0.18   -0.01    0.00    0.00      -0.18    3.62   -0.28
#  72   -2.44   -0.13    0.01    0.20   -0.04    0.00    0.00      -2.41    1.31   -0.28

@<TRIPOS>MOLECULE
          T535678        43
   72    76     0     0     0



@<TRIPOS>ATOM
      1 O1          7.8995    -6.7031    86.0959 O.3        1          -0.4974
      2 C1          8.8132    -7.6219    86.5061 C.ar       1           0.1157
      3 C2          8.6343    -8.9635    86.2013 C.ar       1          -0.1428
      4 C3          9.5648    -9.8952    86.6189 C.ar       1          -0.0968
      5 C4         10.6733    -9.4920    87.3404 C.ar       1          -0.1100
      6 C5         11.6864   -10.5107    87.7950 C.3        1          -0.0722
      7 C6         11.2959   -11.0363    89.1778 C.3        1          -0.1272
      8 C7          9.9142   -11.6892    89.1037 C.3        1           0.0812
      9 N1          9.5403   -12.1925    90.4276 N.pl3      1          -0.6482
     10 C8          8.8541   -11.3793    91.3066 C.ar       1           0.6996
     11 N2          8.5278   -10.1412    90.9496 N.ar       1          -0.6250
     12 C9          7.8668    -9.3577    91.7961 C.ar       1           0.6923
     13 N3          7.5323    -9.8125    92.9998 N.ar       1          -0.6226
     14 C10         7.8588   -11.0506    93.3566 C.ar       1           0.6988
     15 N4          7.5111   -11.5231    94.6059 N.pl3      1          -0.6363
     16 C11         6.7822   -10.6601    95.5387 C.3        1           0.1292
     17 C12         7.5971   -10.4747    96.7927 C.ar       1          -0.1266
     18 C13         8.2138   -11.5593    97.3833 C.ar       1          -0.0864
     19 C14         8.9618   -11.3906    98.5342 C.ar       1          -0.1120
     20 C15         9.0969   -10.1353    99.0997 C.ar       1          -0.0849
     21 C16         8.4850    -9.0440    98.5176 C.ar       1          -0.1026
     22 C17         7.7340    -9.2074    97.3551 C.ar       1          -0.0237
     23 C18         7.0779    -8.0368    96.7216 C.ar       1          -0.0572
     24 C19         7.8452    -6.9652    96.2694 C.ar       1          -0.1034
     25 C20         7.2298    -5.8792    95.6806 C.ar       1          -0.1114
     26 C21         5.8537    -5.8535    95.5389 C.ar       1          -0.1131
     27 C22         5.0876    -6.9143    95.9863 C.ar       1          -0.1180
     28 C23         5.6930    -8.0079    96.5715 C.ar       1          -0.1186
     29 N5          8.5149   -11.8359    92.5079 N.ar       1          -0.6323
     30 H1          8.7494   -12.7409    92.7667 H          1           0.4413
     31 N6          7.5283    -8.0720    91.4258 N.pl3      1          -0.5681
     32 C24         7.8830    -7.5492    90.0972 C.3        1           0.0922
     33 C25         6.6271    -6.9424    89.4628 C.3        1          -0.0217
     34 N7          6.0537    -5.9437    90.3737 N.4        1          -0.5087
     35 H2          6.7546    -5.2538    90.5988 H          1           0.4334
     36 H3          5.2707    -5.4918    89.9255 H          1           0.4425
     37 C26         5.5972    -6.5958    91.6075 C.3        1          -0.0216
     38 C27         6.7971    -7.1874    92.3462 C.3        1           0.0914
     39 C28        10.8539    -8.1553    87.6449 C.ar       1          -0.0970
     40 C29         9.9290    -7.2190    87.2251 C.ar       1          -0.1430
     41 H4          8.1124    -5.7953    86.3519 H          1           0.3963
     42 H5          7.7684    -9.2792    85.6385 H          1           0.1328
     43 H6          9.4261   -10.9399    86.3819 H          1           0.1260
     44 H7         11.7131   -11.3381    87.0860 H          1           0.0805
     45 H8         12.6708   -10.0455    87.8479 H          1           0.0808
     46 H9         12.0287   -11.7731    89.5067 H          1           0.0869
     47 H10        11.2692   -10.2088    89.8868 H          1           0.0865
     48 H11         9.1813   -10.9524    88.7747 H          1           0.0924
     49 H12         9.9409   -12.5166    88.3945 H          1           0.0926
     50 H13         9.7749   -13.0975    90.6866 H          1           0.4465
     51 H14         7.7492   -12.4267    94.8662 H          1           0.4460
     52 H15         6.6052    -9.6903    95.0737 H          1           0.1020
     53 H16         5.8276   -11.1219    95.7907 H          1           0.0981
     54 H17         8.1117   -12.5415    96.9460 H          1           0.1308
     55 H18         9.4421   -12.2420    98.9934 H          1           0.1363
     56 H19         9.6819   -10.0092    99.9988 H          1           0.1374
     57 H20         8.5907    -8.0645    98.9601 H          1           0.1342
     58 H21         8.9193    -6.9841    96.3800 H          1           0.1279
     59 H22         7.8234    -5.0479    95.3300 H          1           0.1285
     60 H23         5.3761    -5.0018    95.0776 H          1           0.1259
     61 H24         4.0137    -6.8888    95.8734 H          1           0.1259
     62 H25         5.0940    -8.8376    96.9164 H          1           0.1234
     63 H26         8.6498    -6.7812    90.1986 H          1           0.1129
     64 H27         8.2538    -8.3610    89.4713 H          1           0.1478
     65 H28         6.8912    -6.4648    88.5194 H          1           0.1581
     66 H29         5.8959    -7.7296    89.2796 H          1           0.1386
     67 H30         5.1023    -5.8627    92.2444 H          1           0.1584
     68 H31         4.8971    -7.3936    91.3595 H          1           0.1385
     69 H32         6.4503    -7.7599    93.2064 H          1           0.1481
     70 H33         7.4525    -6.3822    92.6784 H          1           0.1126
     71 H34        11.7207    -7.8428    88.2083 H          1           0.1257
     72 H35        10.0725    -6.1746    87.4600 H          1           0.1326
@<TRIPOS>BOND
     1    1    2 1
     2    1   41 1
     3    2   40 ar
     4    2    3 ar
     5    3    4 ar
     6    3   42 1
     7    4    5 ar
     8    4   43 1
     9    5    6 1
    10    5   39 ar
    11    6    7 1
    12    6   44 1
    13    6   45 1
    14    7    8 1
    15    7   46 1
    16    7   47 1
    17    8    9 1
    18    8   48 1
    19    8   49 1
    20    9   10 1
    21    9   50 1
    22   10   29 ar
    23   10   11 ar
    24   11   12 ar
    25   12   13 ar
    26   12   31 1
    27   13   14 ar
    28   14   15 1
    29   14   29 ar
    30   15   16 1
    31   15   51 1
    32   16   17 1
    33   16   52 1
    34   16   53 1
    35   17   22 ar
    36   17   18 ar
    37   18   19 ar
    38   18   54 1
    39   19   20 ar
    40   19   55 1
    41   20   21 ar
    42   20   56 1
    43   21   22 ar
    44   21   57 1
    45   22   23 1
    46   23   28 ar
    47   23   24 ar
    48   24   25 ar
    49   24   58 1
    50   25   26 ar
    51   25   59 1
    52   26   27 ar
    53   26   60 1
    54   27   28 ar
    55   27   61 1
    56   28   62 1
    57   29   30 1
    58   31   38 1
    59   31   32 1
    60   32   33 1
    61   32   63 1
    62   32   64 1
    63   33   34 1
    64   33   65 1
    65   33   66 1
    66   34   35 1
    67   34   36 1
    68   34   37 1
    69   37   38 1
    70   37   67 1
    71   37   68 1
    72   38   69 1
    73   38   70 1
    74   39   40 ar
    75   39   71 1
    76   40   72 1
##########                 Name:              T528803
##########          Protonation:                   49
##########               SMILES:   c1cc(cc(c1)/N=c\2/[nH]c(cc[nH+]2)NC[C@@H](c3cccc(c3)C(F)(F)F)O)C#N
##########            Long Name:   romethyl)phenyl]ethyl]amino]-1H-pyrimidin-3-ium-2-ylidene]amino]benzonitrile
##########          FlexRecCode: 1
##########               Number:                  147
##########   Ligand Source File: /raidb/db2/rgc/tcams/tcams-0000449.db2.gz
##########           GlobalRank: 149
##########                 Rank:                    1
##########               Setnum:                  319
##########             Matchnum:                  793
##########                Cloud:                    1
##########        Electrostatic:           -47.935387
##########        Van der Waals:           -28.116268
##########  Ligand Polar Desolv:            12.109884
########## Ligand Apolar Desolv:            -3.219482
##########      Internal Energy:             0.000000
##########      Receptor Energy: 0.0
########## Receptor Desolvation:             0.000000
########## Receptor Hydrophobic:             0.000000
##########         Total Energy: -67.16
##########        Ligand Charge:             1.000000
##########            Arbitrary:    +999.9990
##########     heavy atom count:   29
##########           pose count:    1
##########        Ligand Energy:             0.000000
# num electro vdwattr vdwrepu polsolv apolsol rdesolv rhydroe totalscore fullpol fullapo
#   1   25.35   -4.74    6.59   -6.55    0.87    0.00    0.00      21.53  -12.50    1.66
#   2   -4.46   -1.30    0.31    1.63   -0.06    0.00    0.00      -3.88    3.67   -0.14
#   3   -1.16   -1.14    0.26    0.60   -0.16    0.00    0.00      -1.60    1.33   -0.36
#   4   24.49   -1.82    0.51   -7.98    0.72    0.00    0.00      15.91  -18.36    1.65
#   5  -16.94   -1.27    0.11    6.33   -0.80    0.00    0.00     -12.57   16.10   -2.04
#   6    8.42   -1.54    0.20   -4.02   -0.19    0.00    0.00       2.87   -9.54   -0.46
#   7   -7.71   -1.60    0.27    3.92   -0.41    0.00    0.00      -5.52    9.32   -0.97
#   8   14.41   -1.16    0.09   -6.02    0.34    0.00    0.00       7.67  -16.37    0.93
#   9  -11.98   -0.02    0.00    3.16    0.10    0.00    0.00      -8.74   12.52    0.41
#  10  -11.84   -1.26    0.22    4.83   -1.50    0.00    0.00      -9.55   14.95   -4.64
#  11   16.77   -1.47    0.28   -5.50    0.37    0.00    0.00      10.45  -15.71    1.05
#  12    6.15   -2.28    1.78   -3.69    0.64    0.00    0.00       2.60  -11.81    2.05
#  13   -1.15   -1.42    0.39    0.76   -0.21    0.00    0.00      -1.63    2.13   -0.58
#  14    1.65   -1.14    0.19   -0.73   -0.12    0.00    0.00      -0.15   -2.29   -0.37
#  15    1.52   -2.71    2.21   -0.51   -0.18    0.00    0.00       0.33   -1.36   -0.47
#  16    1.55   -3.01    2.35   -0.60   -0.21    0.00    0.00       0.07   -1.30   -0.45
#  17   -0.22   -1.71    0.22   -0.30   -0.23    0.00    0.00      -2.24   -0.53   -0.40
#  18    1.24   -1.60    0.18   -0.59   -0.21    0.00    0.00      -0.99   -1.23   -0.45
#  19   -5.58   -2.31    0.33    1.19   -0.99    0.00    0.00      -7.36    1.75   -1.46
#  20    9.01   -4.62    3.21   -0.58    0.50    0.00    0.00       7.52   -0.83    0.71
#  21    3.08   -1.51    0.48   -0.63   -0.11    0.00    0.00       1.30   -1.99   -0.34
#  22    1.89   -1.26    0.33   -0.31   -0.12    0.00    0.00       0.53   -1.13   -0.44
#  23    1.55   -0.64    0.06   -0.40   -0.10    0.00    0.00       0.46   -1.82   -0.47
#  24    0.39   -0.84    0.12   -0.27   -0.10    0.00    0.00      -0.70   -1.18   -0.44
#  25    1.17   -1.14    0.18   -0.59   -0.10    0.00    0.00      -0.48   -2.11   -0.37
#  26    0.69   -1.23    0.23   -0.32   -0.14    0.00    0.00      -0.77   -1.01   -0.44
#  27   -1.56   -1.05    0.22    1.02   -0.02    0.00    0.00      -1.39    2.96   -0.07
#  28    0.39   -1.16    0.35   -0.30   -0.16    0.00    0.00      -0.88   -0.84   -0.44
#  29    1.34   -0.54    0.03   -0.39   -0.19    0.00    0.00       0.25   -1.00   -0.48
#  30   -0.63   -2.33    1.46   -0.48   -0.21    0.00    0.00      -2.19   -1.12   -0.48
#  31  -26.39   -0.44    0.70    4.59    0.45    0.00    0.00     -21.09   10.18    1.00
#  32   -3.22   -0.47    0.12    1.28   -0.12    0.00    0.00      -2.40    3.04   -0.28
#  33   -2.15   -0.21    0.01    0.73   -0.05    0.00    0.00      -1.66    3.86   -0.28
#  34   -3.02   -1.12    2.14    1.37   -0.12    0.00    0.00      -0.75    3.27   -0.28
#  35  -24.61   -0.09    0.02    5.20    0.21    0.00    0.00     -19.27   13.61    0.56
#  36   -5.01   -0.43    0.10    2.74   -0.10    0.00    0.00      -2.70    8.01   -0.28
#  37   -6.93   -0.48    0.15    4.48   -0.12    0.00    0.00      -2.91   10.21   -0.28
#  38  -15.64   -0.03    0.00    3.74    0.15    0.00    0.00     -11.78   12.17    0.50
#  39   -0.66   -0.12    0.01    0.58   -0.04    0.00    0.00      -0.23    4.44   -0.28
#  40   -1.80   -0.59    0.34    1.44   -0.11    0.00    0.00      -0.71    3.81   -0.28
#  41   -3.45   -0.62    0.28    0.92   -0.14    0.00    0.00      -3.01    1.81   -0.28
#  42   -3.29   -0.49    0.10    0.48   -0.11    0.00    0.00      -3.30    1.26   -0.28
#  43   -5.28   -0.53    0.59    1.13   -0.06    0.00    0.00      -4.15    4.60   -0.23
#  44   -1.95   -0.07    0.00    0.15   -0.02    0.00    0.00      -1.89    2.41   -0.28
#  45   -0.58   -0.16    0.03    0.12   -0.03    0.00    0.00      -0.62    0.90   -0.25
#  46   -1.75   -0.21    0.01    0.46   -0.05    0.00    0.00      -1.54    2.50   -0.28

@<TRIPOS>MOLECULE
          T528803        49
   46    48     0     0     0



@<TRIPOS>ATOM
      1 O1          7.6848    -4.9888    94.3739 O.3        1          -0.5413
      2 C1          7.1042    -5.9389    95.2696 C.3        1           0.1494
      3 C2          5.7356    -5.4342    95.7314 C.3        1           0.0406
      4 N1          5.0365    -4.8161    94.6020 N.pl3      1          -0.6462
      5 C3          3.6668    -4.8455    94.5444 C.2        1           0.5613
      6 C4          2.9180    -5.0614    95.6895 C.2        1          -0.3273
      7 C5          1.5318    -5.0852    95.5994 C.2        1           0.2911
      8 N2          0.9361    -4.9042    94.4363 N.pl3      1          -0.5925
      9 H1         -0.0326    -4.9236    94.3895 H          1           0.4536
     10 C6          1.6426    -4.6942    93.3215 C.2        1           0.5690
     11 N3          3.0164    -4.6565    93.3565 N.pl3      1          -0.5909
     12 N4          1.0116    -4.5163    92.1698 N.2        1          -0.5094
     13 C7         -0.3512    -4.4216    92.1450 C.ar       1           0.0793
     14 C8         -1.1051    -5.3456    91.4140 C.ar       1          -0.1449
     15 C9         -2.4816    -5.2509    91.3883 C.ar       1          -0.0893
     16 C10        -3.1248    -4.2451    92.0830 C.ar       1          -0.0662
     17 C11        -2.3851    -3.3150    92.8177 C.ar       1           0.0094
     18 C12        -0.9949    -3.4067    92.8536 C.ar       1          -0.0576
     19 C13        -3.0543    -2.2732    93.5369 C.1        1           0.2342
     20 N5         -3.5851    -1.4467    94.1076 N.1        1          -0.3802
     21 C14         6.9402    -7.2600    94.5634 C.ar       1          -0.1392
     22 C15         6.7253    -7.2921    93.1981 C.ar       1          -0.0758
     23 C16         6.5750    -8.5038    92.5504 C.ar       1          -0.1097
     24 C17         6.6400    -9.6839    93.2679 C.ar       1          -0.0563
     25 C18         6.8558    -9.6519    94.6327 C.ar       1          -0.1737
     26 C19         7.0104    -8.4399    95.2798 C.ar       1          -0.0534
     27 C20         6.9263   -10.9381    95.4147 C.3        1           0.5067
     28 F1          6.7459   -12.0214    94.5480 F          1          -0.1716
     29 F2          8.1767   -11.0395    96.0339 F          1          -0.1722
     30 F3          5.9217   -10.9475    96.3884 F          1          -0.1750
     31 H2          7.1584    -4.8244    93.5795 H          1           0.3838
     32 H3          7.7549    -6.0675    96.1346 H          1           0.1309
     33 H4          5.1480    -6.2713    96.1084 H          1           0.1020
     34 H5          5.8684    -4.6974    96.5236 H          1           0.1092
     35 H6          5.5426    -4.3861    93.8949 H          1           0.4498
     36 H7          3.4063    -5.2098    96.6414 H          1           0.1980
     37 H8          0.9386    -5.2532    96.4863 H          1           0.2155
     38 H9          3.5212    -4.5001    92.5432 H          1           0.4534
     39 H10        -0.6089    -6.1343    90.8681 H          1           0.1323
     40 H11        -3.0589    -5.9667    90.8219 H          1           0.1477
     41 H12        -4.2023    -4.1773    92.0577 H          1           0.1462
     42 H13        -0.4186    -2.6933    93.4238 H          1           0.1452
     43 H14         6.6744    -6.3703    92.6376 H          1           0.1332
     44 H15         6.4062    -8.5288    91.4840 H          1           0.1446
     45 H16         6.5218   -10.6307    92.7619 H          1           0.1473
     46 H17         7.1829    -8.4151    96.3457 H          1           0.1388
@<TRIPOS>BOND
     1    1    2 1
     2    1   31 1
     3    2    3 1
     4    2   21 1
     5    2   32 1
     6    3    4 1
     7    3   33 1
     8    3   34 1
     9    4    5 1
    10    4   35 1
    11    5   11 1
    12    5    6 2
    13    6    7 1
    14    6   36 1
    15    7    8 2
    16    7   37 1
    17    8    9 1
    18    8   10 1
    19   10   11 1
    20   10   12 2
    21   11   38 1
    22   12   13 1
    23   13   18 ar
    24   13   14 ar
    25   14   15 ar
    26   14   39 1
    27   15   16 ar
    28   15   40 1
    29   16   17 ar
    30   16   41 1
    31   17   18 ar
    32   17   19 1
    33   18   42 1
    34   19   20 3
    35   21   26 ar
    36   21   22 ar
    37   22   23 ar
    38   22   43 1
    39   23   24 ar
    40   23   44 1
    41   24   25 ar
    42   24   45 1
    43   25   26 ar
    44   25   27 1
    45   26   46 1
    46   27   28 1
    47   27   29 1
    48   27   30 1
##########                 Name:              T532529
##########          Protonation:                   96
##########               SMILES:   [C@H]2C[C@@H]2C(=O)NCCCCC[NH+]3CC[C@H](C3)NC(=O)Nc4ccc(c(c4)C(F)(F)F)F)Cl)Cl
##########            Long Name:   l)phenyl]carbamoylamino]pyrrolidin-1-ium-1-yl]pentyl]cyclopropanecarboxamide
##########          FlexRecCode: 1
##########               Number:                   24
##########   Ligand Source File: /raidb/db2/rgc/tcams/tcams-0001094.db2.gz
##########           GlobalRank: 150
##########                 Rank:                    1
##########               Setnum:                  350
##########             Matchnum:                  233
##########                Cloud:                    1
##########        Electrostatic:           -47.610508
##########        Van der Waals:           -29.888002
##########  Ligand Polar Desolv:            14.136560
########## Ligand Apolar Desolv:            -3.779835
##########      Internal Energy:             0.000000
##########      Receptor Energy: 0.0
########## Receptor Desolvation:             0.000000
########## Receptor Hydrophobic:             0.000000
##########         Total Energy: -67.14
##########        Ligand Charge:             1.000000
##########            Arbitrary:    +999.9990
##########     heavy atom count:   39
##########           pose count:    1
##########        Ligand Energy:             0.000000
# num electro vdwattr vdwrepu polsolv apolsol rdesolv rhydroe totalscore fullpol fullapo
#   1    0.76   -1.11    0.12   -0.21   -0.27    0.00    0.00      -0.70   -0.35   -0.45
#   2   -1.29   -1.83    0.51    0.12   -0.17    0.00    0.00      -2.66    0.23   -0.33
#   3    1.80   -2.44    1.02   -0.55   -0.26    0.00    0.00      -0.43   -1.02   -0.47
#   4    1.02   -2.27    0.53   -0.36   -0.23    0.00    0.00      -1.30   -0.63   -0.40
#   5   -2.03   -1.61    0.20    1.10   -0.34    0.00    0.00      -2.68    2.21   -0.68
#   6   10.95   -1.83    0.37   -5.61    0.85    0.00    0.00       4.72  -11.27    1.70
#   7  -14.02   -1.58    0.30    5.07   -0.88    0.00    0.00     -11.11   11.99   -2.09
#   8   10.43   -1.27    0.22   -2.71    0.12    0.00    0.00       6.78   -7.74    0.33
#   9   18.63   -2.77    2.37   -7.89    1.02    0.00    0.00      11.35  -16.61    2.14
#  10   -5.91   -1.56    0.69    1.63   -0.16    0.00    0.00      -5.30    3.31   -0.33
#  11    6.72   -2.70    1.17   -2.58   -0.16    0.00    0.00       2.45   -4.40   -0.28
#  12    0.54   -2.03    0.57    0.14   -0.23    0.00    0.00      -1.01    0.26   -0.45
#  13   15.55   -1.78    0.93   -4.95    0.18    0.00    0.00       9.93  -12.63    0.45
#  14  -24.38   -0.10    0.02    5.96    0.19    0.00    0.00     -18.31   17.38    0.56
#  15    0.24   -0.67    0.07    0.09   -0.10    0.00    0.00      -0.38    0.29   -0.32
#  16    2.61   -0.36    0.02   -0.89   -0.04    0.00    0.00       1.32   -4.38   -0.21
#  17    2.52   -0.61    0.08   -0.75   -0.06    0.00    0.00       1.19   -2.94   -0.22
#  18    1.45   -0.23    0.01   -0.37   -0.03    0.00    0.00       0.83   -2.43   -0.22
#  19   -1.00   -0.30    0.01    0.26   -0.07    0.00    0.00      -1.10    1.46   -0.42
#  20   14.91   -0.82    0.09   -2.08    0.53    0.00    0.00      12.63   -9.07    2.32
#  21   -9.51   -0.45    0.02    0.74   -0.11    0.00    0.00      -9.30    4.45   -0.64
#  22    5.36   -0.17    0.00   -0.15    0.03    0.00    0.00       5.07   -1.96    0.38
#  23    3.97   -0.53    0.06   -0.39   -0.09    0.00    0.00       3.02   -1.67   -0.37
#  24    3.64   -1.48    0.77   -0.41   -0.13    0.00    0.00       2.40   -1.29   -0.41
#  25    1.13   -0.46    0.05   -0.19   -0.07    0.00    0.00       0.46   -0.95   -0.37
#  26    0.40   -0.61    0.05   -0.04   -0.08    0.00    0.00      -0.29   -0.20   -0.40
#  27    0.40   -0.35    0.01   -0.10   -0.06    0.00    0.00      -0.10   -0.71   -0.42
#  28    0.06   -0.41    0.01   -0.04   -0.05    0.00    0.00      -0.43   -0.25   -0.30
#  29    0.08   -1.24    0.29   -0.05   -0.17    0.00    0.00      -1.08   -0.27   -0.95
#  30    0.06   -0.62    0.04   -0.07   -0.07    0.00    0.00      -0.65   -0.29   -0.30
#  31    0.00   -1.30    0.21   -0.05   -0.20    0.00    0.00      -1.34   -0.21   -0.95
#  32    0.14   -1.21    0.27   -0.19   -0.15    0.00    0.00      -1.14   -0.59   -0.46
#  33    0.58   -1.30    0.32   -0.22   -0.15    0.00    0.00      -0.77   -0.68   -0.46
#  34    0.61   -0.79    0.17    0.17   -0.15    0.00    0.00       0.01    0.50   -0.45
#  35    0.60   -1.40    0.18   -0.26   -0.16    0.00    0.00      -1.04   -0.69   -0.44
#  36    1.38   -1.49    0.23   -0.57   -0.16    0.00    0.00      -0.59   -1.35   -0.37
#  37   -2.43   -1.10    0.18    0.79   -0.03    0.00    0.00      -2.59    1.85   -0.06
#  38    1.63   -1.06    0.19   -0.46   -0.23    0.00    0.00       0.07   -0.89   -0.44
#  39   -0.84   -3.41    3.70   -0.16   -0.22    0.00    0.00      -0.94   -0.34   -0.47
#  40    1.13   -0.53    0.03   -0.12   -0.16    0.00    0.00       0.35   -0.37   -0.47
#  41   -2.26   -0.84    1.29    0.85   -0.15    0.00    0.00      -1.11    1.60   -0.28
#  42   -3.66   -0.64    0.18    1.06   -0.13    0.00    0.00      -3.18    1.86   -0.22
#  43   -6.36   -0.05    0.00    4.45    0.28    0.00    0.00      -1.69    9.40    0.59
#  44   -8.72   -0.21    0.13    5.52    0.26    0.00    0.00      -3.01   12.19    0.58
#  45   -6.43   -0.96    1.86    0.99   -0.12    0.00    0.00      -4.66    2.10   -0.26
#  46   -3.57   -1.85    4.76    1.54   -0.16    0.00    0.00       0.72    2.68   -0.28
#  47   -6.02   -1.46    1.37    0.68   -0.18    0.00    0.00      -5.60    1.08   -0.28
#  48   -4.47   -0.61    0.24    2.29   -0.10    0.00    0.00      -2.64    5.29   -0.22
#  49   -5.86   -1.21    1.02    2.91   -0.16    0.00    0.00      -3.31    5.01   -0.28
#  50   -3.02   -0.13    0.00    0.70   -0.03    0.00    0.00      -2.49    5.63   -0.28
#  51   -3.11   -0.39    0.16    1.38   -0.07    0.00    0.00      -2.03    5.15   -0.28
#  52   -1.28   -0.08    0.00    0.23   -0.02    0.00    0.00      -1.14    3.22   -0.23
#  53   -0.98   -0.07    0.00    0.22   -0.02    0.00    0.00      -0.85    3.28   -0.28
#  54   -1.53   -0.34    0.11    0.42   -0.07    0.00    0.00      -1.41    1.61   -0.28
#  55   -2.87   -0.40    0.17    0.38   -0.06    0.00    0.00      -2.78    1.62   -0.28
#  56   -0.77   -0.05    0.00    0.08   -0.01    0.00    0.00      -0.75    1.86   -0.28
#  57   -0.41   -0.04    0.00    0.08   -0.01    0.00    0.00      -0.38    1.85   -0.28
#  58   -0.35   -0.04    0.00    0.02   -0.01    0.00    0.00      -0.39    0.40   -0.28
#  59   -0.23   -0.16    0.02    0.06   -0.05    0.00    0.00      -0.36    0.39   -0.28
#  60  -13.37   -0.03    0.00    1.88    0.15    0.00    0.00     -11.38    7.14    0.57
#  61   -3.15   -0.18    0.02    0.37   -0.05    0.00    0.00      -2.99    2.24   -0.28
#  62   -3.22   -1.03    1.50    0.75   -0.09    0.00    0.00      -2.10    1.84   -0.22
#  63   -3.09   -0.40    0.16    0.28   -0.08    0.00    0.00      -3.12    1.01   -0.28
#  64   -1.41   -0.08    0.01    0.05   -0.02    0.00    0.00      -1.46    0.59   -0.26
#  65   -0.45   -0.05    0.00    0.10   -0.01    0.00    0.00      -0.42    1.91   -0.21
#  66    0.65   -0.69    0.86    0.42   -0.10    0.00    0.00       1.14    1.17   -0.28
#  67   -1.08   -0.90    1.28    0.55   -0.10    0.00    0.00      -0.26    1.46   -0.28
#  68   -4.20   -0.17    0.03    0.88   -0.04    0.00    0.00      -3.51    6.20   -0.28
#  69   -3.17   -0.14    0.00    0.78   -0.03    0.00    0.00      -2.56    6.39   -0.26
#  70   -1.10   -0.21    0.02    0.58   -0.05    0.00    0.00      -0.78    2.66   -0.25

@<TRIPOS>MOLECULE
          T532529        96
   70    73     0     0     0



@<TRIPOS>ATOM
      1 F1          9.0674   -12.4179    98.2170 F          1          -0.1167
      2 C1          8.6250   -11.1485    98.0834 C.ar       1           0.1460
      3 C2          9.0194   -10.1796    98.9911 C.ar       1          -0.1315
      4 C3          8.5679    -8.8815    98.8566 C.ar       1          -0.0576
      5 C4          7.7185    -8.5477    97.8101 C.ar       1           0.1441
      6 N1          7.2598    -7.2316    97.6717 N.am       1          -0.6754
      7 C5          6.9777    -6.7415    96.4484 C.2        1           0.7120
      8 O1          7.1214    -7.4418    95.4648 O.2        1          -0.5580
      9 N2          6.5362    -5.4750    96.3151 N.am       1          -0.7336
     10 C6          6.2295    -4.9423    94.9852 C.3        1           0.1514
     11 C7          5.7012    -3.5170    95.0936 C.3        1          -0.1585
     12 C8          4.3041    -3.5604    94.4643 C.3        1          -0.0135
     13 N3          4.3600    -4.7266    93.5484 N.4        1          -0.3871
     14 H1          4.8679    -4.4958    92.7075 H          1           0.4306
     15 C9          3.0069    -5.1974    93.2240 C.3        1          -0.0092
     16 C10         3.0974    -6.3980    92.2798 C.3        1          -0.1484
     17 C11         3.8147    -5.9826    90.9938 C.3        1          -0.1150
     18 C12         3.9052    -7.1831    90.0497 C.3        1          -0.1328
     19 C13         4.6225    -6.7678    88.7638 C.3        1           0.1176
     20 N4          5.9719    -6.2980    89.0872 N.am       1          -0.7315
     21 C14         7.0004    -7.1686    89.1125 C.2        1           0.5461
     22 O2          6.8090    -8.3409    88.8674 O.2        1          -0.5316
     23 C15         8.3886    -6.6854    89.4451 C.3        1          -0.1825
     24 C16         8.7718    -6.6006    90.9239 C.3        1          -0.1410
     25 C17         9.3660    -7.7003    90.0415 C.3        1          -0.0793
     26 C18        10.8181    -7.5762    89.6582 C.ar       1          -0.0426
     27 C19        11.1931    -7.6750    88.3312 C.ar       1          -0.1008
     28 C20        12.5257    -7.5609    87.9789 C.ar       1          -0.0281
     29 Cl1        12.9971    -7.6846    86.3127 Cl         1          -0.0429
     30 C21        13.4836    -7.3480    88.9560 C.ar       1          -0.0330
     31 Cl2        15.1566    -7.2043    88.5154 Cl         1          -0.0419
     32 C22        13.1066    -7.2493    90.2830 C.ar       1          -0.0935
     33 C23        11.7736    -7.3578    90.6328 C.ar       1          -0.0908
     34 C24         5.0941    -5.7375    94.3426 C.3        1          -0.0191
     35 C25         7.3247    -9.5202    96.9010 C.ar       1          -0.0682
     36 C26         7.7827   -10.8165    97.0361 C.ar       1          -0.1992
     37 C27         7.3602   -11.8713    96.0462 C.3        1           0.5140
     38 F2          7.9426   -13.0954    96.3920 F          1          -0.1727
     39 F3          5.9669   -11.9962    96.0640 F          1          -0.1677
     40 F4          7.7789   -11.5014    94.7635 F          1          -0.1677
     41 H2          9.6801   -10.4396    99.8049 H          1           0.1569
     42 H3          8.8751    -8.1265    99.5651 H          1           0.1544
     43 H4          7.1450    -6.6729    98.4563 H          1           0.4147
     44 H5          6.4217    -4.9163    97.0997 H          1           0.4075
     45 H6          7.1172    -4.9693    94.3531 H          1           0.1311
     46 H7          5.6367    -3.2152    96.1391 H          1           0.1029
     47 H8          6.3442    -2.8314    94.5420 H          1           0.1204
     48 H9          3.5442    -3.7123    95.2307 H          1           0.1366
     49 H10         4.1077    -2.6449    93.9063 H          1           0.1373
     50 H11         2.4958    -5.4934    94.1401 H          1           0.1329
     51 H12         2.4494    -4.3957    92.7398 H          1           0.1312
     52 H13         3.6549    -7.1998    92.7640 H          1           0.0886
     53 H14         2.0934    -6.7475    92.0392 H          1           0.0895
     54 H15         3.2571    -5.1808    90.5096 H          1           0.0792
     55 H16         4.8187    -5.6330    91.2345 H          1           0.0784
     56 H17         4.4627    -7.9850    90.5339 H          1           0.0747
     57 H18         2.9011    -7.5326    89.8090 H          1           0.0753
     58 H19         4.6870    -7.6229    88.0911 H          1           0.0699
     59 H20         4.0651    -5.9659    88.2795 H          1           0.0697
     60 H21         6.1251    -5.3605    89.2834 H          1           0.4032
     61 H22         8.7959    -5.9281    88.7751 H          1           0.1284
     62 H23         9.4311    -5.7874    91.2272 H          1           0.1128
     63 H24         8.0198    -6.8944    91.6562 H          1           0.1094
     64 H25         9.0049    -8.7175    90.1934 H          1           0.1347
     65 H26        10.4456    -7.8414    87.5697 H          1           0.1435
     66 H27        13.8532    -7.0835    91.0457 H          1           0.1468
     67 H28        11.4789    -7.2760    91.6685 H          1           0.1417
     68 H29         5.4929    -6.5177    93.6941 H          1           0.1462
     69 H30         4.4469    -6.1668    95.1074 H          1           0.1380
     70 H31         6.6640    -9.2625    96.0864 H          1           0.1538
@<TRIPOS>BOND
     1    1    2 1
     2    2   36 ar
     3    2    3 ar
     4    3    4 ar
     5    3   41 1
     6    4    5 ar
     7    4   42 1
     8    5    6 1
     9    5   35 ar
    10    6    7 am
    11    6   43 1
    12    7    8 2
    13    7    9 am
    14    9   10 1
    15    9   44 1
    16   10   34 1
    17   10   11 1
    18   10   45 1
    19   11   12 1
    20   11   46 1
    21   11   47 1
    22   12   13 1
    23   12   48 1
    24   12   49 1
    25   13   14 1
    26   13   15 1
    27   13   34 1
    28   15   16 1
    29   15   50 1
    30   15   51 1
    31   16   17 1
    32   16   52 1
    33   16   53 1
    34   17   18 1
    35   17   54 1
    36   17   55 1
    37   18   19 1
    38   18   56 1
    39   18   57 1
    40   19   20 1
    41   19   58 1
    42   19   59 1
    43   20   21 am
    44   20   60 1
    45   21   22 2
    46   21   23 1
    47   23   25 1
    48   23   24 1
    49   23   61 1
    50   24   25 1
    51   24   62 1
    52   24   63 1
    53   25   26 1
    54   25   64 1
    55   26   33 ar
    56   26   27 ar
    57   27   28 ar
    58   27   65 1
    59   28   29 1
    60   28   30 ar
    61   30   31 1
    62   30   32 ar
    63   32   33 ar
    64   32   66 1
    65   33   67 1
    66   34   68 1
    67   34   69 1
    68   35   36 ar
    69   35   70 1
    70   36   37 1
    71   37   38 1
    72   37   39 1
    73   37   40 1
##########                 Name:              T526924
##########          Protonation:                   75
##########               SMILES:   Cc1c(sc(c1Br)C(=C)F)C[NH2+]CCC[NH+]=c2[nH]c3ccccc3[nH]2
##########            Long Name:   -thienyl]methyl-[3-(1,3-dihydrobenzimidazol-2-ylideneammonio)propyl]ammonium
##########          FlexRecCode: 1
##########               Number:                  121
##########   Ligand Source File: /raidb/db2/rgc/tcams/tcams-0000320.db2.gz
##########           GlobalRank: 151
##########                 Rank:                    1
##########               Setnum:                  172
##########             Matchnum:                 3617
##########                Cloud:                    1
##########        Electrostatic:           -61.047173
##########        Van der Waals:           -19.650352
##########  Ligand Polar Desolv:            16.976614
########## Ligand Apolar Desolv:            -3.412206
##########      Internal Energy:             0.000000
##########      Receptor Energy: 0.0
########## Receptor Desolvation:             0.000000
########## Receptor Hydrophobic:             0.000000
##########         Total Energy: -67.13
##########        Ligand Charge:             2.000000
##########            Arbitrary:    +999.9990
##########     heavy atom count:   25
##########           pose count:    1
##########        Ligand Energy:             0.000000
# num electro vdwattr vdwrepu polsolv apolsol rdesolv rhydroe totalscore fullpol fullapo
#   1    1.94   -1.00    0.60   -0.85   -0.04    0.00    0.00       0.64   -3.81   -0.19
#   2    0.14   -0.37    0.02   -0.50   -0.06    0.00    0.00      -0.77   -3.24   -0.40
#   3    4.92   -0.40    0.02   -0.62   -0.04    0.00    0.00       3.88   -4.12   -0.29
#   4   -3.52   -1.24    0.84    1.33   -0.11    0.00    0.00      -2.70    5.03   -0.43
#   5   20.30   -2.24    3.50   -6.95    0.20    0.00    0.00      14.80  -25.47    0.73
#   6  -14.23   -0.02    0.00    3.90    0.09    0.00    0.00     -10.25   23.64    0.57
#   7  -26.94   -0.22    0.13    7.59    0.18    0.00    0.00     -19.25   23.68    0.57
#   8    0.15   -0.51    0.05    0.04   -0.09    0.00    0.00      -0.35    0.17   -0.40
#   9    3.72   -0.46    0.02   -2.07   -0.06    0.00    0.00       1.16   -8.52   -0.24
#  10   -1.41   -0.36    0.01    0.59   -0.08    0.00    0.00      -1.25    2.93   -0.41
#  11   13.29   -0.75    0.03   -7.86    0.48    0.00    0.00       5.20  -26.71    1.64
#  12  -10.11   -0.01    0.00    3.24    0.09    0.00    0.00      -6.80   21.28    0.57
#  13  -15.23   -1.09    0.08    9.91   -1.80    0.00    0.00      -8.13   27.29   -4.95
#  14   10.06   -1.29    0.17   -8.16    0.45    0.00    0.00       1.22  -21.22    1.16
#  15   -1.74   -1.53    0.14    1.33   -0.39    0.00    0.00      -2.19    2.65   -0.77
#  16    1.98   -3.01    1.63   -1.54   -0.28    0.00    0.00      -1.21   -2.68   -0.48
#  17    1.74   -3.04    0.91   -2.14   -0.30    0.00    0.00      -2.83   -3.31   -0.47
#  18    1.75   -3.23    1.04   -2.23   -0.32    0.00    0.00      -2.99   -3.23   -0.47
#  19    2.03   -2.74    0.52   -1.91   -0.31    0.00    0.00      -2.40   -2.97   -0.48
#  20   -1.95   -1.90    0.25    1.21   -0.41    0.00    0.00      -2.81    2.25   -0.77
#  21   16.86   -2.20    0.60   -9.50    0.55    0.00    0.00       6.31  -20.90    1.21
#  22   -1.22   -0.28    0.00    0.50   -0.06    0.00    0.00      -1.05    7.03   -0.80
#  23    0.13   -0.19    0.01   -0.35   -0.02    0.00    0.00      -0.43   -4.37   -0.30
#  24   -0.04   -0.17    0.01    0.05   -0.03    0.00    0.00      -0.18    0.65   -0.34
#  25    0.03   -0.18    0.02   -0.22   -0.05    0.00    0.00      -0.40   -1.89   -0.43
#  26    0.09   -0.07    0.00   -0.13   -0.01    0.00    0.00      -0.12   -3.06   -0.32
#  27    0.84   -0.26    0.01   -0.29   -0.03    0.00    0.00       0.26   -2.65   -0.29
#  28   -0.09   -1.04    0.08   -0.30   -0.15    0.00    0.00      -1.51   -1.91   -0.98
#  29   -2.00   -0.49    0.36    1.01   -0.07    0.00    0.00      -1.20    3.88   -0.28
#  30   -0.93   -0.30    0.17    1.01   -0.04    0.00    0.00      -0.10    5.92   -0.23
#  31   -1.10   -0.40    0.37   -0.04   -0.04    0.00    0.00      -1.22   -0.22   -0.23
#  32   -5.87   -0.62    0.60    2.82   -0.08    0.00    0.00      -3.15   10.04   -0.28
#  33   -5.25   -0.37    0.14    2.28   -0.05    0.00    0.00      -3.26   10.27   -0.24
#  34   -3.21   -0.19    0.02    1.89   -0.06    0.00    0.00      -1.55    9.47   -0.28
#  35   -1.99   -0.07    0.00    0.59   -0.02    0.00    0.00      -1.49    9.58   -0.28
#  36   -2.11   -0.10    0.00    0.56   -0.03    0.00    0.00      -1.68    6.12   -0.28
#  37   -3.21   -0.24    0.03    1.44   -0.07    0.00    0.00      -2.05    6.12   -0.28
#  38   -1.19   -0.15    0.02    0.88   -0.04    0.00    0.00      -0.47    6.56   -0.28
#  39   -0.88   -0.07    0.00    0.43   -0.02    0.00    0.00      -0.54    6.57   -0.28
#  40   -4.61   -0.03    0.00    4.52    0.13    0.00    0.00       0.02   19.80    0.57
#  41   -3.16   -1.57    3.50    2.37   -0.13    0.00    0.00       1.01    4.92   -0.28
#  42   -3.70   -1.05    0.91    1.75   -0.18    0.00    0.00      -2.27    2.76   -0.28
#  43   -3.73   -1.11    0.73    1.51   -0.17    0.00    0.00      -2.78    2.45   -0.28
#  44   -3.76   -0.76    0.22    2.43   -0.18    0.00    0.00      -2.05    3.84   -0.28
#  45  -17.62   -0.08    0.01    7.40    0.25    0.00    0.00     -10.04   17.52    0.59
#  46   -0.11   -0.01    0.00    0.08   -0.01    0.00    0.00      -0.05    3.85   -0.26
#  47   -0.08   -0.01    0.00    0.03    0.00    0.00    0.00      -0.07    1.63   -0.28

@<TRIPOS>MOLECULE
          T526924        75
   47    49     0     0     0



@<TRIPOS>ATOM
      1 C1          7.9248    -8.5980    92.1483 C.3        1          -0.1330
      2 C2          6.7914    -8.8570    91.1894 C.2        1          -0.0117
      3 C3          6.0667    -7.8242    90.6865 C.2        1          -0.2942
      4 C4          6.2167    -6.3473    90.9458 C.3        1           0.1041
      5 N1          5.3865    -5.9652    92.0959 N.4        1          -0.5124
      6 H1          5.6824    -6.4814    92.9106 H          1           0.4321
      7 H2          5.4869    -4.9763    92.2694 H          1           0.4316
      8 C5          3.9790    -6.2712    91.8068 C.3        1          -0.0064
      9 C6          3.1142    -5.8733    93.0046 C.3        1          -0.1684
     10 C7          1.6483    -6.1919    92.7036 C.3        1           0.0994
     11 N2          0.8203    -5.8109    93.8506 N.pl3      1          -0.6565
     12 H3          0.9754    -6.2178    94.7172 H          1           0.4443
     13 C8         -0.1269    -4.9229    93.7060 C.cat      1           0.6648
     14 N3         -0.4490    -4.2817    92.5369 N.pl3      1          -0.5779
     15 C9         -1.5099    -3.4144    92.7944 C.ar       1           0.0770
     16 C10        -2.2232    -2.5352    91.9924 C.ar       1          -0.0848
     17 C11        -3.2484    -1.7854    92.5349 C.ar       1          -0.0741
     18 C12        -3.5672    -1.9071    93.8762 C.ar       1          -0.0735
     19 C13        -2.8625    -2.7793    94.6825 C.ar       1          -0.0835
     20 C14        -1.8315    -3.5373    94.1465 C.ar       1           0.0800
     21 N4         -0.9671    -4.4827    94.6971 N.pl3      1          -0.5768
     22 S1          4.8910    -8.6657    89.6393 S.3        1           0.1806
     23 C15         5.4387   -10.3386    89.9375 C.2        1          -0.0573
     24 C16         4.9126   -11.5987    89.3878 C.2        1           0.0988
     25 F1          4.9939   -12.7372    90.1106 F          1          -0.1097
     26 C17         4.3560   -11.6167    88.1775 C.2        1          -0.1511
     27 C18         6.4811   -10.1436    90.8079 C.2        1          -0.1497
     28 Br1         7.4673   -11.6121    91.4762 Br         1           0.0180
     29 H4          8.0128    -7.5262    92.3258 H          1           0.0883
     30 H5          7.7265    -9.1073    93.0914 H          1           0.0781
     31 H6          8.8549    -8.9732    91.7214 H          1           0.0962
     32 H7          7.2610    -6.1203    91.1601 H          1           0.1495
     33 H8          5.8969    -5.7896    90.0656 H          1           0.1539
     34 H9          3.6592    -5.7134    90.9265 H          1           0.1438
     35 H10         3.8705    -7.3395    91.6193 H          1           0.1439
     36 H11         3.4340    -6.4310    93.8848 H          1           0.1092
     37 H12         3.2227    -4.8050    93.1922 H          1           0.1092
     38 H13         1.3286    -5.6343    91.8234 H          1           0.1065
     39 H14         1.5399    -7.2603    92.5163 H          1           0.1065
     40 H15        -0.0136    -4.4093    91.6795 H          1           0.4541
     41 H16        -1.9768    -2.4371    90.9456 H          1           0.1503
     42 H17        -3.8033    -1.1012    91.9101 H          1           0.1576
     43 H18        -4.3698    -1.3174    94.2939 H          1           0.1578
     44 H19        -3.1135    -2.8710    95.7289 H          1           0.1515
     45 H20        -0.9594    -4.7765    95.6215 H          1           0.4585
     46 H21         4.2910   -10.7065    87.5996 H          1           0.1304
     47 H22         3.9700   -12.5411    87.7741 H          1           0.1450
@<TRIPOS>BOND
     1    1    2 1
     2    1   29 1
     3    1   30 1
     4    1   31 1
     5    2   27 1
     6    2    3 2
     7    3    4 1
     8    3   22 1
     9    4    5 1
    10    4   32 1
    11    4   33 1
    12    5    6 1
    13    5    7 1
    14    5    8 1
    15    8    9 1
    16    8   34 1
    17    8   35 1
    18    9   10 1
    19    9   36 1
    20    9   37 1
    21   10   11 1
    22   10   38 1
    23   10   39 1
    24   11   12 1
    25   11   13 2
    26   13   21 1
    27   13   14 1
    28   14   15 1
    29   14   40 1
    30   15   20 ar
    31   15   16 ar
    32   16   17 ar
    33   16   41 1
    34   17   18 ar
    35   17   42 1
    36   18   19 ar
    37   18   43 1
    38   19   20 ar
    39   19   44 1
    40   20   21 1
    41   21   45 1
    42   22   23 1
    43   23   24 1
    44   23   27 2
    45   24   25 1
    46   24   26 2
    47   26   46 1
    48   26   47 1
    49   27   28 1
##########                 Name:              T525554
##########          Protonation:                   26
##########               SMILES:   Cc1cccc(c1)C(=O)Nc2cc[nH+]c(c2)N(C)CCC[NH+](C)Cc3cccc(c3)C#N
##########            Long Name:   -[methyl-[4-[(3-methylbenzoyl)amino]pyridin-1-ium-2-yl]amino]propyl]ammonium
##########          FlexRecCode: 1
##########               Number:                  286
##########   Ligand Source File: /raidb/db2/rgc/tcams/tcams-0000061.db2.gz
##########           GlobalRank: 152
##########                 Rank:                    1
##########               Setnum:                  132
##########             Matchnum:                 1477
##########                Cloud:                    1
##########        Electrostatic:           -39.544186
##########        Van der Waals:           -31.629761
##########  Ligand Polar Desolv:             8.758114
########## Ligand Apolar Desolv:            -4.685971
##########      Internal Energy:             0.000000
##########      Receptor Energy: 0.0
########## Receptor Desolvation:             0.000000
########## Receptor Hydrophobic:             0.000000
##########         Total Energy: -67.1
##########        Ligand Charge:             2.000000
##########            Arbitrary:    +999.9990
##########     heavy atom count:   32
##########           pose count:    1
##########        Ligand Energy:             0.000000
# num electro vdwattr vdwrepu polsolv apolsol rdesolv rhydroe totalscore fullpol fullapo
#   1   -2.18   -1.13    0.38    0.66   -0.16    0.00    0.00      -2.43    2.19   -0.54
#   2   14.24   -0.72    0.08   -4.79    0.35    0.00    0.00       9.16  -23.28    1.68
#   3   -1.58   -0.25    0.01    0.47   -0.06    0.00    0.00      -1.42    3.15   -0.39
#   4    3.92   -0.41    0.04   -1.71   -0.04    0.00    0.00       1.80   -8.72   -0.22
#   5    0.12   -0.18    0.00   -0.02   -0.04    0.00    0.00      -0.11   -0.15   -0.35
#   6    4.91   -0.27    0.01   -2.44    0.05    0.00    0.00       2.26  -17.83    0.33
#   7   -7.18   -0.01    0.00    1.70    0.04    0.00    0.00      -5.44   22.63    0.54
#   8    0.37   -0.12    0.00   -0.24   -0.03    0.00    0.00      -0.02   -3.46   -0.44
#   9   -0.60   -0.55    0.10    0.60   -0.07    0.00    0.00      -0.52    2.87   -0.36
#  10    2.16   -0.86    0.10   -1.09   -0.09    0.00    0.00       0.22   -3.94   -0.33
#  11    1.48   -1.39    0.39   -0.37   -0.12    0.00    0.00      -0.01   -1.08   -0.36
#  12    2.59   -2.20    0.64   -1.81   -0.20    0.00    0.00      -0.98   -4.23   -0.47
#  13    0.60   -2.08    0.61   -0.99   -0.19    0.00    0.00      -2.04   -2.36   -0.45
#  14    0.03   -1.12    0.14   -0.86   -0.14    0.00    0.00      -1.96   -2.40   -0.40
#  15    0.32   -0.79    0.06   -0.20   -0.13    0.00    0.00      -0.74   -0.67   -0.44
#  16    0.01   -1.72    0.88    1.62   -0.46    0.00    0.00       0.33    5.17   -1.46
#  17   -0.43   -2.58    2.53   -1.84    0.19    0.00    0.00      -2.13   -6.79    0.71
#  18   -9.97   -0.65    0.05    3.96   -0.43    0.00    0.00      -7.04   18.48   -2.01
#  19    4.15   -0.70    0.05   -1.91   -0.10    0.00    0.00       1.48   -8.15   -0.43
#  20   -4.34   -0.93    0.10    2.15   -0.20    0.00    0.00      -3.23    7.23   -0.68
#  21    6.94   -1.18    0.11   -6.04    0.59    0.00    0.00       0.43  -16.70    1.64
#  22   -3.92   -1.30    0.20    3.77   -0.21    0.00    0.00      -1.47   11.23   -0.64
#  23    2.30   -1.16    0.23   -2.59    0.09    0.00    0.00      -1.13   -9.04    0.33
#  24    1.19   -1.43    0.19   -1.01   -0.15    0.00    0.00      -1.21   -2.73   -0.41
#  25    0.28   -1.48    0.19   -0.60   -0.18    0.00    0.00      -1.79   -1.43   -0.43
#  26    0.62   -1.63    0.21   -0.93   -0.22    0.00    0.00      -1.95   -1.69   -0.40
#  27    1.09   -1.65    0.37   -0.88   -0.12    0.00    0.00      -1.18   -1.47   -0.20
#  28    0.69   -2.12    0.68   -0.99   -0.25    0.00    0.00      -2.00   -1.81   -0.45
#  29    1.67   -2.23    0.86   -1.28   -0.25    0.00    0.00      -1.24   -2.41   -0.47
#  30    1.15   -1.70    0.33   -0.64   -0.22    0.00    0.00      -1.07   -1.27   -0.44
#  31    2.84   -1.02    0.07   -2.74   -0.14    0.00    0.00      -0.99   -7.87   -0.41
#  32   -3.39   -0.79    0.03    2.69   -0.30    0.00    0.00      -1.75    8.73   -0.97
#  33   11.33   -0.64    0.02   -4.69    0.23    0.00    0.00       6.25  -19.60    0.96
#  34   -9.37   -0.01    0.00    2.96    0.06    0.00    0.00      -6.36   22.31    0.44
#  35   -2.91   -0.47    0.17    0.54   -0.09    0.00    0.00      -2.76    1.77   -0.28
#  36   -4.05   -0.85    0.98    1.08   -0.07    0.00    0.00      -2.91    3.35   -0.22
#  37   -1.50   -0.17    0.02    1.00   -0.05    0.00    0.00      -0.72    5.21   -0.28
#  38   -0.99   -0.07    0.00    0.42   -0.01    0.00    0.00      -0.66    6.28   -0.21
#  39   -1.16   -0.04    0.00    0.23   -0.01    0.00    0.00      -0.99    5.78   -0.28
#  40   -2.67   -0.15    0.02    0.76   -0.03    0.00    0.00      -2.08    5.11   -0.21
#  41   -2.61   -0.25    0.06    1.23   -0.06    0.00    0.00      -1.64    5.67   -0.28
#  42   -1.36   -0.05    0.00    0.52   -0.01    0.00    0.00      -0.90    9.99   -0.28
#  43   -1.16   -0.03    0.00    0.26   -0.01    0.00    0.00      -0.94    8.29   -0.28
#  44   -0.52   -0.04    0.00    0.25   -0.01    0.00    0.00      -0.31    6.69   -0.22
#  45   -0.56   -0.02    0.00    0.10   -0.01    0.00    0.00      -0.48    3.66   -0.21
#  46   -0.63   -0.03    0.00    0.28   -0.01    0.00    0.00      -0.39    6.99   -0.28
#  47   -2.61   -0.40    0.22    2.32   -0.07    0.00    0.00      -0.53    9.39   -0.27
#  48   -1.20   -0.14    0.03    1.03   -0.03    0.00    0.00      -0.31    8.77   -0.28
#  49   -3.81   -0.30    0.10    1.89   -0.07    0.00    0.00      -2.19    8.12   -0.28
#  50   -5.20   -0.82    0.56    1.53   -0.13    0.00    0.00      -4.06    3.23   -0.28
#  51   -3.49   -0.85    0.90    0.51   -0.12    0.00    0.00      -3.06    1.18   -0.28
#  52   -0.37   -0.14    0.01    1.10   -0.04    0.00    0.00       0.56    7.16   -0.28
#  53   -3.05   -0.12    0.01    0.91   -0.03    0.00    0.00      -2.28    7.03   -0.21
#  54   -5.25   -0.02    0.00    3.65    0.13    0.00    0.00      -1.49   13.03    0.46
#  55   -0.50   -0.31    0.04    0.35   -0.08    0.00    0.00      -0.50    1.25   -0.27
#  56   -0.25   -1.03    0.91    0.46   -0.17    0.00    0.00      -0.07    0.78   -0.28
#  57   -0.77   -0.64    0.25    0.46   -0.16    0.00    0.00      -0.85    0.82   -0.28
#  58   -0.88   -0.46    0.11    0.35   -0.13    0.00    0.00      -1.02    0.75   -0.28
#  59   -1.01   -0.59    0.38    0.98   -0.15    0.00    0.00      -0.39    1.81   -0.28
#  60   -2.80   -0.58    0.18    1.64   -0.14    0.00    0.00      -1.69    3.32   -0.28
#  61   -1.92   -0.29    0.02    2.06   -0.08    0.00    0.00      -0.21    5.71   -0.22
#  62   -3.21   -0.29    0.03    0.84   -0.07    0.00    0.00      -2.70    2.67   -0.22
#  63   -5.13   -0.18    0.01    2.13   -0.05    0.00    0.00      -3.23   11.11   -0.28

@<TRIPOS>MOLECULE
          T525554        26
   63    65     0     0     0



@<TRIPOS>ATOM
      1 C1          4.1420    -5.4979    91.0421 C.3        1           0.0728
      2 N1          4.5582    -6.6524    91.8422 N.pl3      1          -0.5968
      3 C2          5.2377    -7.7811    91.2015 C.3        1           0.1008
      4 C3          6.5350    -7.2939    90.5529 C.3        1          -0.1810
      5 C4          7.2445    -8.4726    89.8837 C.3        1          -0.0100
      6 N2          8.4901    -8.0048    89.2611 N.4        1          -0.3860
      7 H1          8.3332    -7.1072    88.8280 H          1           0.4244
      8 C5          8.9214    -8.9715    88.2423 C.3        1          -0.0604
      9 C6          9.5331    -7.8775    90.2877 C.3        1           0.0453
     10 C7         10.6216    -6.9634    89.7873 C.ar       1          -0.1670
     11 C8         10.2913    -5.7718    89.1661 C.ar       1          -0.0706
     12 C9         11.2842    -4.9268    88.7036 C.ar       1          -0.1067
     13 C10        12.6121    -5.2672    88.8598 C.ar       1          -0.0348
     14 C11        12.9526    -6.4675    89.4860 C.ar       1          -0.0043
     15 C12        11.9453    -7.3136    89.9547 C.ar       1          -0.0511
     16 C13        14.3288    -6.8273    89.6514 C.1        1           0.2229
     17 N3         15.4205    -7.1128    89.7827 N.1        1          -0.3690
     18 C14         4.3083    -6.6769    93.2097 C.ar       1           0.4556
     19 C15         5.1723    -7.3618    94.0542 C.ar       1          -0.2390
     20 C16         4.9096    -7.3770    95.4197 C.ar       1           0.3192
     21 N4          5.7527    -8.0525    96.3022 N.am       1          -0.6654
     22 C17         6.4284    -9.1425    95.8877 C.2        1           0.5751
     23 O1          6.3032    -9.5369    94.7447 O.2        1          -0.4910
     24 C18         7.3216    -9.8582    96.8228 C.ar       1          -0.1555
     25 C19         7.5747   -11.2199    96.6471 C.ar       1          -0.0489
     26 C20         8.4096   -11.8817    97.5231 C.ar       1          -0.0831
     27 C21         8.6838   -13.3516    97.3351 C.3        1          -0.1246
     28 C22         8.9963   -11.1989    98.5741 C.ar       1          -0.0735
     29 C23         8.7494    -9.8496    98.7541 C.ar       1          -0.1176
     30 C24         7.9205    -9.1744    97.8820 C.ar       1          -0.0901
     31 C25         3.7813    -6.6990    95.8857 C.ar       1          -0.1711
     32 C26         2.9714    -6.0422    94.9853 C.ar       1           0.1621
     33 N5          3.2512    -6.0424    93.6946 N.ar       1          -0.5203
     34 H2          2.6650    -5.5679    93.0848 H          1           0.4334
     35 H3          3.6570    -4.7650    91.6869 H          1           0.0863
     36 H4          5.0164    -5.0468    90.5730 H          1           0.0920
     37 H5          3.4431    -5.8229    90.2715 H          1           0.0969
     38 H6          5.4680    -8.5390    91.9501 H          1           0.0894
     39 H7          4.5886    -8.2100    90.4380 H          1           0.1242
     40 H8          6.3046    -6.5359    89.8042 H          1           0.1078
     41 H9          7.1840    -6.8650    91.3164 H          1           0.0886
     42 H10         7.4750    -9.2306    90.6324 H          1           0.1362
     43 H11         6.5955    -8.9016    89.1202 H          1           0.1419
     44 H12         9.8456    -8.6243    87.7803 H          1           0.1226
     45 H13         9.0910    -9.9412    88.7102 H          1           0.1304
     46 H14         8.1477    -9.0659    87.4805 H          1           0.1286
     47 H15         9.0990    -7.4616    91.1970 H          1           0.1415
     48 H16         9.9537    -8.8599    90.5023 H          1           0.1441
     49 H17         9.2533    -5.5005    89.0413 H          1           0.1409
     50 H18        11.0193    -3.9987    88.2190 H          1           0.1514
     51 H19        13.3863    -4.6067    88.4981 H          1           0.1497
     52 H20        12.2018    -8.2419    90.4434 H          1           0.1407
     53 H21         6.0354    -7.8750    93.6563 H          1           0.1831
     54 H22         5.8526    -7.7377    97.2142 H          1           0.4308
     55 H23         7.1173   -11.7540    95.8274 H          1           0.1409
     56 H24         9.3600   -13.6979    98.1168 H          1           0.0806
     57 H25         7.7472   -13.9062    97.3931 H          1           0.0765
     58 H26         9.1425   -13.5139    96.3598 H          1           0.0738
     59 H27         9.6496   -11.7217    99.2569 H          1           0.1380
     60 H28         9.2100    -9.3227    99.5767 H          1           0.1383
     61 H29         7.7322    -8.1201    98.0210 H          1           0.1234
     62 H30         3.5462    -6.6900    96.9398 H          1           0.1945
     63 H31         2.0973    -5.5165    95.3405 H          1           0.2133
@<TRIPOS>BOND
     1    1    2 1
     2    1   35 1
     3    1   36 1
     4    1   37 1
     5    2    3 1
     6    2   18 1
     7    3    4 1
     8    3   38 1
     9    3   39 1
    10    4    5 1
    11    4   40 1
    12    4   41 1
    13    5    6 1
    14    5   42 1
    15    5   43 1
    16    6    7 1
    17    6    8 1
    18    6    9 1
    19    8   44 1
    20    8   45 1
    21    8   46 1
    22    9   10 1
    23    9   47 1
    24    9   48 1
    25   10   15 ar
    26   10   11 ar
    27   11   12 ar
    28   11   49 1
    29   12   13 ar
    30   12   50 1
    31   13   14 ar
    32   13   51 1
    33   14   15 ar
    34   14   16 1
    35   15   52 1
    36   16   17 3
    37   18   33 ar
    38   18   19 ar
    39   19   20 ar
    40   19   53 1
    41   20   21 1
    42   20   31 ar
    43   21   22 am
    44   21   54 1
    45   22   23 2
    46   22   24 1
    47   24   30 ar
    48   24   25 ar
    49   25   26 ar
    50   25   55 1
    51   26   27 1
    52   26   28 ar
    53   27   56 1
    54   27   57 1
    55   27   58 1
    56   28   29 ar
    57   28   59 1
    58   29   30 ar
    59   29   60 1
    60   30   61 1
    61   31   32 ar
    62   31   62 1
    63   32   33 ar
    64   32   63 1
    65   33   34 1
##########                 Name:              T535614
##########          Protonation:                   12
##########               SMILES:   Oc1ccc(cc1)c2cc(ccc2)C[NH2+][C@H]3CC[NH+](CC3)C[C@H]4c5c6n(c(=O)ccc6ccc5F)C4
##########            Long Name:   Hyl]methyl]piperidin-1-ium-4-yl]-[[3-(4-methoxyphenyl)phenyl]methyl]ammonium
##########          FlexRecCode: 1
##########               Number:                  259
##########   Ligand Source File: /raidb/db2/rgc/tcams/tcams-0001376.db2.gz
##########           GlobalRank: 153
##########                 Rank:                    1
##########               Setnum:                   55
##########             Matchnum:                 1389
##########                Cloud:                    1
##########        Electrostatic:           -40.774467
##########        Van der Waals:           -32.043056
##########  Ligand Polar Desolv:             9.546137
########## Ligand Apolar Desolv:            -3.812813
##########      Internal Energy:             0.000000
##########      Receptor Energy: 0.0
########## Receptor Desolvation:             0.000000
########## Receptor Hydrophobic:             0.000000
##########         Total Energy: -67.08
##########        Ligand Charge:             2.000000
##########            Arbitrary:    +999.9990
##########     heavy atom count:   37
##########           pose count:    1
##########        Ligand Energy:             0.000000
# num electro vdwattr vdwrepu polsolv apolsol rdesolv rhydroe totalscore fullpol fullapo
#   1   -0.15   -1.46    0.26    0.15    0.02    0.00    0.00      -1.17    0.26    0.03
#   2    3.44   -1.79    0.50   -2.24    0.50    0.00    0.00       0.42   -4.15    0.93
#   3   -1.72   -1.80    0.55    0.21   -0.14    0.00    0.00      -2.90    0.47   -0.31
#   4    3.17   -1.83    0.28   -1.81   -0.22    0.00    0.00      -0.42   -3.38   -0.42
#   5    0.82   -1.51    0.16   -1.02   -0.21    0.00    0.00      -1.77   -2.16   -0.44
#   6    1.33   -1.15    0.09   -0.64   -0.15    0.00    0.00      -0.52   -1.76   -0.41
#   7    0.37   -1.40    0.20   -0.34   -0.15    0.00    0.00      -1.32   -0.97   -0.44
#   8    1.06   -1.47    0.22   -1.34   -0.18    0.00    0.00      -1.71   -3.42   -0.46
#   9    0.12   -0.90    0.06   -0.76   -0.13    0.00    0.00      -1.62   -2.41   -0.41
#  10    1.59   -1.14    0.11   -1.43   -0.16    0.00    0.00      -1.03   -3.87   -0.44
#  11    2.57   -1.04    0.06   -1.63   -0.16    0.00    0.00      -0.19   -4.68   -0.47
#  12    2.59   -0.80    0.06   -0.76   -0.12    0.00    0.00       0.97   -2.93   -0.45
#  13    3.40   -0.64    0.04   -0.83   -0.08    0.00    0.00       1.90   -3.89   -0.37
#  14   -0.72   -0.31    0.01    0.55   -0.07    0.00    0.00      -0.53    3.24   -0.40
#  15   14.30   -0.86    0.26   -6.17    0.13    0.00    0.00       7.67  -27.93    0.60
#  16  -18.82   -0.05    0.00    6.21    0.13    0.00    0.00     -12.52   26.12    0.56
#  17  -11.63   -0.01    0.00    4.45    0.06    0.00    0.00      -7.14   26.42    0.34
#  18   -0.24   -0.32    0.02    0.46   -0.05    0.00    0.00      -0.13    2.70   -0.27
#  19    1.75   -0.13    0.00   -0.75   -0.02    0.00    0.00       0.86   -9.47   -0.22
#  20    0.33   -0.19    0.01   -0.26   -0.05    0.00    0.00      -0.17   -2.05   -0.37
#  21    6.20   -0.34    0.01   -3.16    0.04    0.00    0.00       2.76  -19.76    0.27
#  22   -5.11    0.00    0.00    1.18    0.02    0.00    0.00      -3.92   23.78    0.46
#  23    0.11   -0.31    0.01    0.13   -0.05    0.00    0.00      -0.11    0.72   -0.30
#  24    0.81   -0.39    0.02   -0.39   -0.05    0.00    0.00       0.01   -1.60   -0.20
#  25   -0.48   -0.40    0.03    0.40   -0.11    0.00    0.00      -0.55    1.90   -0.51
#  26    1.24   -0.59    0.05   -2.57    0.36    0.00    0.00      -1.51  -12.29    1.71
#  27   -0.42   -0.58    0.05    0.70   -0.13    0.00    0.00      -0.38    3.69   -0.68
#  28    0.19   -0.50    0.04   -0.69   -0.07    0.00    0.00      -1.04   -4.05   -0.41
#  29    0.01   -0.45    0.05    0.08   -0.07    0.00    0.00      -0.38    0.54   -0.47
#  30    0.32   -0.60    0.12   -0.77   -0.08    0.00    0.00      -1.01   -4.74   -0.46
#  31   -1.17   -0.68    0.12    1.65   -0.13    0.00    0.00      -0.21    8.28   -0.65
#  32    1.16   -0.71    0.09   -1.62    0.10    0.00    0.00      -0.98   -7.26    0.45
#  33    0.00   -0.61    0.04   -0.17   -0.10    0.00    0.00      -0.84   -0.76   -0.46
#  34    0.83   -1.45    0.47   -1.65   -0.15    0.00    0.00      -1.95   -5.12   -0.46
#  35   -1.97   -1.18    0.14    2.06   -0.12    0.00    0.00      -1.08    5.72   -0.34
#  36    1.54   -1.32    0.33   -1.54   -0.22    0.00    0.00      -1.22   -3.31   -0.48
#  37    1.69   -0.71    0.06   -1.08   -0.11    0.00    0.00      -0.15   -4.12   -0.40
#  38    0.97   -0.85    0.19   -0.83   -0.10    0.00    0.00      -0.62   -3.01   -0.36
#  39    3.71   -0.74    0.13   -2.18   -0.06    0.00    0.00       0.86   -8.49   -0.24
#  40    1.48   -0.77    0.07   -0.59   -0.11    0.00    0.00       0.08   -2.35   -0.42
#  41   -0.16   -0.73    0.31    0.38   -0.15    0.00    0.00      -0.36    0.64   -0.26
#  42   -0.75   -0.51    0.13    0.75   -0.14    0.00    0.00      -0.53    1.46   -0.28
#  43   -0.50   -0.33    0.03    0.31   -0.10    0.00    0.00      -0.58    0.82   -0.26
#  44   -2.88   -0.45    0.06    0.58   -0.12    0.00    0.00      -2.82    1.08   -0.22
#  45   -2.19   -0.42    0.18    0.56   -0.07    0.00    0.00      -1.94    1.67   -0.22
#  46   -0.17   -0.36    0.12    2.16   -0.05    0.00    0.00       1.69    8.99   -0.22
#  47   -0.81   -0.25    0.02    0.88   -0.08    0.00    0.00      -0.24    3.21   -0.28
#  48   -2.69   -0.40    0.13    0.22   -0.07    0.00    0.00      -2.82    0.66   -0.22
#  49   -3.99   -0.31    0.03    0.48   -0.08    0.00    0.00      -3.87    1.74   -0.28
#  50   -3.72   -0.17    0.01    1.31   -0.05    0.00    0.00      -2.62    7.10   -0.28
#  51   -1.28   -0.07    0.00    0.79   -0.02    0.00    0.00      -0.58   11.20   -0.22
#  52   -2.17   -0.07    0.00    0.60   -0.02    0.00    0.00      -1.66    8.95   -0.28
#  53   -1.94   -0.07    0.00    0.67   -0.02    0.00    0.00      -1.36    9.87   -0.28
#  54   -1.01   -0.03    0.00    0.27   -0.01    0.00    0.00      -0.77    8.27   -0.22
#  55   -0.93   -0.02    0.00    0.20   -0.01    0.00    0.00      -0.76    6.52   -0.28
#  56   -2.09   -0.10    0.01    1.32   -0.03    0.00    0.00      -0.89   11.47   -0.22
#  57   -1.31   -0.03    0.00    0.29   -0.01    0.00    0.00      -1.06    8.27   -0.28
#  58   -2.56   -0.18    0.02    1.85   -0.05    0.00    0.00      -0.93    9.92   -0.28
#  59   -1.20   -0.05    0.00    0.36   -0.01    0.00    0.00      -0.91    7.06   -0.28
#  60   -2.97   -0.18    0.01    1.86   -0.05    0.00    0.00      -1.33    8.99   -0.22
#  61   -0.30   -0.06    0.00    0.42   -0.02    0.00    0.00       0.04    6.19   -0.24
#  62   -1.52   -0.29    0.09    0.94   -0.07    0.00    0.00      -0.84    3.97   -0.28
#  63   -0.13   -0.05    0.00    0.16   -0.01    0.00    0.00      -0.04    3.35   -0.28
#  64   -0.23   -0.10    0.01    0.14   -0.03    0.00    0.00      -0.21    1.35   -0.28
#  65   -0.06   -0.08    0.00    0.29   -0.02    0.00    0.00       0.13    3.38   -0.28
#  66   -0.44   -0.76    0.88    1.18   -0.09    0.00    0.00       0.77    3.55   -0.28
#  67   -4.61   -0.55    0.32    3.28   -0.07    0.00    0.00      -1.62   11.15   -0.23
#  68   -4.96   -0.30    0.06    1.93   -0.05    0.00    0.00      -3.32    7.45   -0.21
#  69   -1.49   -0.13    0.01    0.79   -0.03    0.00    0.00      -0.85    6.46   -0.28
#  70   -5.02   -0.64    0.40    2.30   -0.09    0.00    0.00      -3.04    7.39   -0.28
#  71   -1.32   -0.14    0.01    1.27   -0.03    0.00    0.00      -0.20   10.17   -0.22

@<TRIPOS>MOLECULE
          T535614        12
   71    76     0     0     0



@<TRIPOS>ATOM
      1 C1          9.1437   -12.1010    98.4100 C.3        1           0.0214
      2 O1          9.0210   -10.7226    98.7662 O.3        1          -0.3107
      3 C2          8.2254    -9.9508    97.9804 C.ar       1           0.1539
      4 C3          8.0673    -8.6017    98.2675 C.ar       1          -0.2037
      5 C4          7.2606    -7.8158    97.4717 C.ar       1          -0.0547
      6 C5          6.6039    -8.3772    96.3780 C.ar       1          -0.1184
      7 C6          6.7648    -9.7318    96.0919 C.ar       1          -0.0658
      8 C7          7.5767   -10.5116    96.8885 C.ar       1          -0.1535
      9 C8          5.7349    -7.5345    95.5201 C.ar       1          -0.0079
     10 C9          5.0715    -6.4353    96.0623 C.ar       1          -0.0798
     11 C10         4.2648    -5.6547    95.2598 C.ar       1          -0.1001
     12 C11         4.1140    -5.9617    93.9192 C.ar       1          -0.0990
     13 C12         4.7695    -7.0515    93.3759 C.ar       1          -0.1685
     14 C13         4.5998    -7.3798    91.9149 C.3        1           0.0420
     15 N1          5.6290    -6.6813    91.1333 N.4        1          -0.5148
     16 H1          5.5353    -5.6857    91.2675 H          1           0.4391
     17 H2          6.5433    -6.9775    91.4407 H          1           0.4126
     18 C14         5.4636    -7.0014    89.7093 C.3        1           0.0141
     19 C15         6.0881    -8.3686    89.4156 C.3        1          -0.1701
     20 C16         7.5920    -8.3060    89.6917 C.3        1          -0.0255
     21 N2          8.2091    -7.2898    88.8312 N.4        1          -0.3897
     22 H3          8.0127    -7.5041    87.8651 H          1           0.4329
     23 C17         9.6626    -7.2864    89.0449 C.3        1          -0.0084
     24 C18        10.3523    -6.6266    87.8491 C.3        1          -0.0598
     25 C19        10.1410    -7.4687    86.5726 C.3        1           0.0991
     26 N3         11.4884    -7.8659    86.1384 N.am       1          -0.5279
     27 C20        12.3937    -7.3459    87.0173 C.ar       1           0.1894
     28 C21        13.7738    -7.5398    86.8913 C.ar       1          -0.1285
     29 C22        14.2475    -8.3368    85.7601 C.2        1          -0.0062
     30 C23        13.3148    -8.8368    84.9061 C.2        1          -0.2067
     31 C24        11.9362    -8.5999    85.0981 C.2        1           0.5511
     32 O2         11.1342    -9.0682    84.3085 O.2        1          -0.5115
     33 C25        14.6213    -6.9666    87.8443 C.ar       1           0.0039
     34 C26        14.0761    -6.2365    88.8660 C.ar       1          -0.1788
     35 C27        12.6989    -6.0517    88.9784 C.ar       1           0.1861
     36 F1         12.1961    -5.3243    89.9998 F          1          -0.1287
     37 C28        11.8491    -6.6115    88.0462 C.ar       1          -0.2060
     38 C29         7.6667    -5.9652    89.1569 C.3        1          -0.0352
     39 C30         6.1657    -5.9376    88.8604 C.3        1          -0.1661
     40 C31         5.5835    -7.8359    94.1682 C.ar       1          -0.1033
     41 H4          9.8052   -12.6015    99.1169 H          1           0.0623
     42 H5          8.1610   -12.5718    98.4360 H          1           0.1104
     43 H6          9.5584   -12.1810    97.4051 H          1           0.0614
     44 H7          8.5765    -8.1674    99.1151 H          1           0.1394
     45 H8          7.1375    -6.7666    97.6960 H          1           0.1319
     46 H9          6.2570   -10.1696    95.2453 H          1           0.1238
     47 H10         7.7048   -11.5605    96.6652 H          1           0.1373
     48 H11         5.1883    -6.1949    97.1088 H          1           0.1402
     49 H12         3.7500    -4.8028    95.6789 H          1           0.1417
     50 H13         3.4817    -5.3480    93.2947 H          1           0.1333
     51 H14         4.7011    -8.4553    91.7701 H          1           0.1392
     52 H15         3.6120    -7.0598    91.5830 H          1           0.1490
     53 H16         4.4024    -7.0234    89.4615 H          1           0.1747
     54 H17         5.6313    -9.1226    90.0568 H          1           0.1412
     55 H18         5.9203    -8.6284    88.3705 H          1           0.1414
     56 H19         7.7585    -8.0464    90.7372 H          1           0.1260
     57 H20         8.0397    -9.2780    89.4839 H          1           0.1618
     58 H21         9.8952    -6.7285    89.9519 H          1           0.1467
     59 H22        10.0169    -8.3121    89.1483 H          1           0.1487
     60 H23         9.9769    -5.6134    87.7057 H          1           0.1255
     61 H24         9.5415    -8.3508    86.7973 H          1           0.0890
     62 H25         9.6573    -6.8695    85.8011 H          1           0.1094
     63 H26        15.3007    -8.5213    85.6081 H          1           0.1628
     64 H27        13.6358    -9.4290    84.0619 H          1           0.1687
     65 H28        15.6910    -7.0983    87.7755 H          1           0.1617
     66 H29        14.7289    -5.7932    89.6033 H          1           0.1556
     67 H30         7.8318    -5.7555    90.2137 H          1           0.1289
     68 H31         8.1696    -5.2089    88.5544 H          1           0.1602
     69 H32         5.9996    -6.1471    87.8038 H          1           0.1410
     70 H33         5.7647    -4.9540    89.1047 H          1           0.1419
     71 H34         6.0987    -8.6839    93.7420 H          1           0.1288
@<TRIPOS>BOND
     1    1    2 1
     2    1   41 1
     3    1   42 1
     4    1   43 1
     5    2    3 1
     6    3    8 ar
     7    3    4 ar
     8    4    5 ar
     9    4   44 1
    10    5    6 ar
    11    5   45 1
    12    6    7 ar
    13    6    9 1
    14    7    8 ar
    15    7   46 1
    16    8   47 1
    17    9   40 ar
    18    9   10 ar
    19   10   11 ar
    20   10   48 1
    21   11   12 ar
    22   11   49 1
    23   12   13 ar
    24   12   50 1
    25   13   14 1
    26   13   40 ar
    27   14   15 1
    28   14   51 1
    29   14   52 1
    30   15   16 1
    31   15   17 1
    32   15   18 1
    33   18   39 1
    34   18   19 1
    35   18   53 1
    36   19   20 1
    37   19   54 1
    38   19   55 1
    39   20   21 1
    40   20   56 1
    41   20   57 1
    42   21   22 1
    43   21   23 1
    44   21   38 1
    45   23   24 1
    46   23   58 1
    47   23   59 1
    48   24   37 1
    49   24   25 1
    50   24   60 1
    51   25   26 1
    52   25   61 1
    53   25   62 1
    54   26   31 am
    55   26   27 1
    56   27   37 ar
    57   27   28 ar
    58   28   29 1
    59   28   33 ar
    60   29   30 2
    61   29   63 1
    62   30   31 1
    63   30   64 1
    64   31   32 2
    65   33   34 ar
    66   33   65 1
    67   34   35 ar
    68   34   66 1
    69   35   36 1
    70   35   37 ar
    71   38   39 1
    72   38   67 1
    73   38   68 1
    74   39   69 1
    75   39   70 1
    76   40   71 1
##########                 Name:              T526895
##########          Protonation:                   34
##########               SMILES:   Cc1ccc(cc1Nc2cc[nH+]/c(=N\c3cccc(c3)c4[nH]c5ccccc5n4)/[nH]2)OC
##########            Long Name:   l-2-yl)phenyl]imino-N-(5-methoxy-2-methyl-phenyl)-1H-pyrimidin-3-ium-6-amine
##########          FlexRecCode: 1
##########               Number:                  122
##########   Ligand Source File: /raidb/db2/rgc/tcams/tcams-0000247.db2.gz
##########           GlobalRank: 154
##########                 Rank:                    1
##########               Setnum:                  100
##########             Matchnum:                 1858
##########                Cloud:                    1
##########        Electrostatic:           -39.925354
##########        Van der Waals:           -30.329094
##########  Ligand Polar Desolv:             7.044954
########## Ligand Apolar Desolv:            -3.850205
##########      Internal Energy:             0.000000
##########      Receptor Energy: 0.0
########## Receptor Desolvation:             0.000000
########## Receptor Hydrophobic:             0.000000
##########         Total Energy: -67.06
##########        Ligand Charge:             1.000000
##########            Arbitrary:    +999.9990
##########     heavy atom count:   32
##########           pose count:    1
##########        Ligand Energy:             0.000000
# num electro vdwattr vdwrepu polsolv apolsol rdesolv rhydroe totalscore fullpol fullapo
#   1   -0.03   -0.43    0.03    0.03    0.01    0.00    0.00      -0.39    0.14    0.03
#   2    0.43   -0.64    0.07   -0.59    0.21    0.00    0.00      -0.53   -2.64    0.93
#   3   -0.31   -0.88    0.15    0.21   -0.07    0.00    0.00      -0.91    0.91   -0.31
#   4    0.48   -0.73    0.05   -0.65   -0.11    0.00    0.00      -0.95   -2.51   -0.42
#   5    0.12   -0.95    0.11   -0.22   -0.12    0.00    0.00      -1.07   -0.81   -0.45
#   6    0.56   -1.26    0.30   -0.62   -0.11    0.00    0.00      -1.14   -2.26   -0.41
#   7    1.49   -0.98    0.26   -0.69   -0.07    0.00    0.00       0.02   -2.01   -0.19
#   8   -0.59   -2.19    1.64    1.12   -0.20    0.00    0.00      -0.22    3.82   -0.70
#   9   13.25   -4.42    6.80   -5.41    0.37    0.00    0.00      10.59  -14.68    1.01
#  10  -14.64   -1.91    0.71    4.12   -0.52    0.00    0.00     -12.24   12.89   -1.64
#  11    4.67   -0.52    0.03   -1.45   -0.09    0.00    0.00       2.64   -7.50   -0.47
#  12   -4.50   -0.38    0.01    1.60   -0.14    0.00    0.00      -3.41   11.02   -0.97
#  13   11.53   -0.56    0.03   -2.88    0.18    0.00    0.00       8.30  -14.80    0.91
#  14   -6.89   -0.01    0.00    1.01    0.03    0.00    0.00      -5.85   12.27    0.40
#  15  -17.51   -1.55    0.48    3.62   -1.35    0.00    0.00     -16.30   12.44   -4.64
#  16   23.16   -4.31    5.25   -4.74    0.31    0.00    0.00      19.67  -12.67    0.83
#  17   16.42   -1.59    0.31   -3.34    0.74    0.00    0.00      12.55   -9.20    2.05
#  18   -2.03   -0.90    0.04    0.53   -0.19    0.00    0.00      -2.54    1.62   -0.58
#  19    3.84   -1.02    0.06   -0.87   -0.13    0.00    0.00       1.87   -2.39   -0.36
#  20    1.92   -1.40    0.13   -0.54   -0.21    0.00    0.00      -0.09   -1.18   -0.47
#  21    1.58   -1.70    0.28   -0.69   -0.20    0.00    0.00      -0.73   -1.51   -0.45
#  22   -0.13   -1.10    0.08   -0.16   -0.15    0.00    0.00      -1.46   -0.43   -0.41
#  23    1.29   -0.85    0.04   -0.30   -0.13    0.00    0.00       0.04   -1.03   -0.45
#  24   -3.93   -1.26    0.11    0.53   -0.83    0.00    0.00      -5.38    1.36   -2.13
#  25    3.07   -1.57    0.28   -0.07    0.74    0.00    0.00       2.44   -0.18    2.03
#  26   -0.43   -1.52    0.23   -0.06   -0.31    0.00    0.00      -2.09   -0.15   -0.79
#  27    0.49   -1.52    0.28   -0.11   -0.19    0.00    0.00      -1.05   -0.26   -0.47
#  28    1.37   -1.58    0.25   -0.25   -0.23    0.00    0.00      -0.45   -0.51   -0.47
#  29    1.46   -2.14    0.41   -0.34   -0.26    0.00    0.00      -0.87   -0.63   -0.47
#  30    2.20   -2.35    0.45   -0.36   -0.27    0.00    0.00      -0.33   -0.62   -0.47
#  31   -0.90   -1.65    0.18    0.01   -0.39    0.00    0.00      -2.76    0.01   -0.78
#  32    9.28   -1.91    0.64   -1.68    0.55    0.00    0.00       6.88   -3.46    1.14
#  33    0.46   -1.52    0.82   -0.78   -0.11    0.00    0.00      -1.13   -2.97   -0.41
#  34   -0.06   -0.12    0.01    0.09   -0.04    0.00    0.00      -0.13    0.62   -0.27
#  35   -0.08   -0.06    0.00    0.04   -0.02    0.00    0.00      -0.12    0.68   -0.26
#  36   -0.10   -0.23    0.03    0.25   -0.07    0.00    0.00      -0.12    1.04   -0.28
#  37   -0.30   -0.13    0.00    0.15   -0.03    0.00    0.00      -0.30    1.17   -0.22
#  38   -0.57   -0.44    0.25    0.39   -0.06    0.00    0.00      -0.42    1.80   -0.28
#  39   -2.37   -0.56    0.45    0.39   -0.08    0.00    0.00      -2.16    1.37   -0.28
#  40   -0.90   -0.15    0.01    0.34   -0.03    0.00    0.00      -0.73    2.44   -0.22
#  41   -1.54   -0.35    0.07    0.29   -0.08    0.00    0.00      -1.62    0.97   -0.28
#  42  -24.92   -0.49    0.85    5.67    0.21    0.00    0.00     -18.68   11.91    0.45
#  43   -1.99   -0.05    0.00    0.40   -0.01    0.00    0.00      -1.65    8.60   -0.28
#  44   -1.76   -0.05    0.00    0.65   -0.02    0.00    0.00      -1.18   12.07   -0.28
#  45  -24.94   -0.21    0.07    4.25    0.28    0.00    0.00     -20.54    8.66    0.57
#  46   -3.22   -0.21    0.01    0.96   -0.06    0.00    0.00      -2.51    4.25   -0.27
#  47   -4.20   -0.44    0.12    1.73   -0.12    0.00    0.00      -2.91    4.00   -0.28
#  48   -1.60   -0.70    0.46    1.02   -0.10    0.00    0.00      -0.93    2.35   -0.24
#  49   -4.55   -0.19    0.02    0.01   -0.04    0.00    0.00      -4.75    0.09   -0.27
#  50   -0.71   -0.26    0.02    0.04   -0.07    0.00    0.00      -0.99    0.15   -0.28
#  51   -1.27   -0.30    0.03    0.39   -0.10    0.00    0.00      -1.25    1.11   -0.28
#  52   -2.38   -0.62    0.37    0.79   -0.14    0.00    0.00      -1.98    1.54   -0.28
#  53   -2.94   -0.71    0.20    0.85   -0.16    0.00    0.00      -2.76    1.49   -0.28
#  54   -6.47   -0.09    0.02    1.90    0.21    0.00    0.00      -4.42    4.79    0.53
#  55   -0.24   -0.25    0.06    0.44   -0.04    0.00    0.00      -0.04    2.16   -0.22

@<TRIPOS>MOLECULE
          T526895        34
   55    59     0     0     0



@<TRIPOS>ATOM
      1 C1          0.6125    -6.5121    86.6699 C.3        1           0.0227
      2 O1          1.6052    -6.7438    85.6684 O.3        1          -0.3122
      3 C2          2.8718    -6.3398    85.9499 C.ar       1           0.1711
      4 C3          3.8841    -6.5290    85.0192 C.ar       1          -0.2089
      5 C4          5.1725    -6.1192    85.3043 C.ar       1          -0.0355
      6 C5          5.4576    -5.5196    86.5158 C.ar       1          -0.1381
      7 C6          6.8639    -5.0734    86.8229 C.3        1          -0.1166
      8 C7          4.4484    -5.3272    87.4510 C.ar       1           0.1720
      9 N1          4.7366    -4.7204    88.6770 N.pl3      1          -0.6541
     10 C8          4.5115    -5.3994    89.8486 C.2        1           0.5676
     11 C9          4.6116    -6.7799    89.8931 C.2        1          -0.2988
     12 C10         4.3782    -7.4389    91.0939 C.2        1           0.3082
     13 N2          4.0651    -6.7569    92.1789 N.pl3      1          -0.5749
     14 H1          3.9054    -7.2312    93.0099 H          1           0.4562
     15 C11         3.9640    -5.4244    92.1546 C.2        1           0.5469
     16 N3          4.1899    -4.7235    90.9937 N.pl3      1          -0.5727
     17 N4          3.6470    -4.7711    93.2631 N.2        1          -0.4922
     18 C12         3.5362    -5.4459    94.4457 C.ar       1           0.0772
     19 C13         2.3224    -5.4489    95.1406 C.ar       1          -0.1618
     20 C14         2.2100    -6.1306    96.3353 C.ar       1          -0.0853
     21 C15         3.2932    -6.8142    96.8526 C.ar       1          -0.0994
     22 C16         4.5113    -6.8200    96.1698 C.ar       1           0.0082
     23 C17         4.6321    -6.1392    94.9610 C.ar       1          -0.0534
     24 C18         5.6694    -7.5528    96.7268 C.2        1           0.3020
     25 N5          5.9608    -8.8052    96.4748 N.2        1          -0.4665
     26 C19         7.0840    -9.1556    97.1471 C.ar       1           0.0449
     27 C20         7.8197   -10.3419    97.2370 C.ar       1          -0.0602
     28 C21         8.9393   -10.3910    98.0177 C.ar       1          -0.1227
     29 C22         9.3579    -9.2735    98.7264 C.ar       1          -0.0878
     30 C23         8.6486    -8.0933    98.6537 C.ar       1          -0.1151
     31 C24         7.5083    -8.0235    97.8652 C.ar       1           0.0598
     32 N6          6.6011    -7.0225    97.5779 N.pl3      1          -0.5917
     33 C25         3.1523    -5.7336    87.1641 C.ar       1          -0.2091
     34 H2         -0.3511    -6.8811    86.3185 H          1           0.0634
     35 H3          0.8903    -7.0357    87.5848 H          1           0.0634
     36 H4          0.5413    -5.4431    86.8704 H          1           0.1094
     37 H5          3.6644    -6.9975    84.0713 H          1           0.1421
     38 H6          5.9585    -6.2683    84.5785 H          1           0.1437
     39 H7          6.8945    -4.6265    87.8165 H          1           0.0786
     40 H8          7.5331    -5.9333    86.7905 H          1           0.0608
     41 H9          7.1814    -4.3380    86.0837 H          1           0.0833
     42 H10         5.0956    -3.8196    88.6999 H          1           0.4480
     43 H11         4.8676    -7.3378    89.0045 H          1           0.2054
     44 H12         4.4534    -8.5153    91.1392 H          1           0.2221
     45 H13         4.1180    -3.7562    90.9858 H          1           0.4587
     46 H14         1.4715    -4.9165    94.7418 H          1           0.1299
     47 H15         1.2709    -6.1292    96.8684 H          1           0.1440
     48 H16         3.1978    -7.3454    97.7882 H          1           0.1331
     49 H17         5.5708    -6.1446    94.4269 H          1           0.1527
     50 H18         7.5028   -11.2177    96.6901 H          1           0.1328
     51 H19         9.5043   -11.3090    98.0846 H          1           0.1355
     52 H20        10.2454    -9.3288    99.3393 H          1           0.1365
     53 H21         8.9789    -7.2271    99.2075 H          1           0.1278
     54 H22         6.6192    -6.1143    97.9179 H          1           0.4242
     55 H23         2.3649    -5.5812    87.8874 H          1           0.1250
@<TRIPOS>BOND
     1    1    2 1
     2    1   34 1
     3    1   35 1
     4    1   36 1
     5    2    3 1
     6    3   33 ar
     7    3    4 ar
     8    4    5 ar
     9    4   37 1
    10    5    6 ar
    11    5   38 1
    12    6    7 1
    13    6    8 ar
    14    7   39 1
    15    7   40 1
    16    7   41 1
    17    8    9 1
    18    8   33 ar
    19    9   10 1
    20    9   42 1
    21   10   16 1
    22   10   11 2
    23   11   12 1
    24   11   43 1
    25   12   13 2
    26   12   44 1
    27   13   14 1
    28   13   15 1
    29   15   16 1
    30   15   17 2
    31   16   45 1
    32   17   18 1
    33   18   23 ar
    34   18   19 ar
    35   19   20 ar
    36   19   46 1
    37   20   21 ar
    38   20   47 1
    39   21   22 ar
    40   21   48 1
    41   22   23 ar
    42   22   24 1
    43   23   49 1
    44   24   32 1
    45   24   25 2
    46   25   26 1
    47   26   31 ar
    48   26   27 ar
    49   27   28 ar
    50   27   50 1
    51   28   29 ar
    52   28   51 1
    53   29   30 ar
    54   29   52 1
    55   30   31 ar
    56   30   53 1
    57   31   32 1
    58   32   54 1
    59   33   55 1
##########                 Name:              T531161
##########          Protonation:                   11
##########               SMILES:   (CC[NH2+]1)Cc2cccc(c2)c3cc(ccc3F)CNC(=O)c4cccc(c4)C[NH+]5CCN(CC5)CCOc6ccccc6
##########            Long Name:   l]phenyl]methyl]-3-[[4-(2-phenoxyethyl)piperazin-1-ium-1-yl]methyl]benzamide
##########          FlexRecCode: 1
##########               Number:                   81
##########   Ligand Source File: /raidb/db2/rgc/tcams/tcams-0000786.db2.gz
##########           GlobalRank: 155
##########                 Rank:                    1
##########               Setnum:                    9
##########             Matchnum:                 1987
##########                Cloud:                    1
##########        Electrostatic:           -42.479080
##########        Van der Waals:           -30.791822
##########  Ligand Polar Desolv:             9.737667
########## Ligand Apolar Desolv:            -3.456241
##########      Internal Energy:             0.000000
##########      Receptor Energy: 0.0
########## Receptor Desolvation:             0.000000
########## Receptor Hydrophobic:             0.000000
##########         Total Energy: -66.99
##########        Ligand Charge:             2.000000
##########            Arbitrary:    +999.9990
##########     heavy atom count:   47
##########           pose count:    1
##########        Ligand Energy:             0.000000
# num electro vdwattr vdwrepu polsolv apolsol rdesolv rhydroe totalscore fullpol fullapo
#   1    4.11   -0.92    0.10   -2.09   -0.07    0.00    0.00       1.13   -5.20   -0.18
#   2   -0.73   -0.61    0.04    0.83   -0.12    0.00    0.00      -0.59    2.50   -0.35
#   3   -0.74   -1.03    0.16    0.21   -0.16    0.00    0.00      -1.57    0.49   -0.38
#   4   11.09   -1.15    0.07   -5.65    1.12    0.00    0.00       5.48  -13.73    2.72
#   5   -1.78   -0.49    0.02    0.61   -0.11    0.00    0.00      -1.76    2.14   -0.39
#   6    1.22   -0.97    0.10   -0.40   -0.11    0.00    0.00      -0.17   -1.26   -0.34
#   7    1.36   -1.42    0.19   -0.76   -0.18    0.00    0.00      -0.81   -1.87   -0.45
#   8    1.55   -1.53    0.19   -1.03   -0.22    0.00    0.00      -1.04   -2.24   -0.47
#   9    0.94   -1.31    0.13   -0.72   -0.17    0.00    0.00      -1.13   -1.92   -0.44
#  10    0.31   -1.35    0.30   -0.39   -0.12    0.00    0.00      -1.24   -1.22   -0.37
#  11    0.58   -1.45    0.78   -0.47   -0.09    0.00    0.00      -0.65   -1.69   -0.31
#  12    0.31   -1.39    0.31   -0.44   -0.12    0.00    0.00      -1.33   -1.45   -0.38
#  13    0.39   -0.98    0.21   -0.27   -0.10    0.00    0.00      -0.75   -1.11   -0.43
#  14    0.79   -0.75    0.08   -0.44   -0.09    0.00    0.00      -0.40   -1.79   -0.37
#  15   -0.93   -0.30    0.02    0.42   -0.07    0.00    0.00      -0.85    2.72   -0.44
#  16    4.38   -0.25    0.01   -1.29    0.24    0.00    0.00       3.08  -12.31    2.32
#  17   -2.91   -0.14    0.00    0.53   -0.04    0.00    0.00      -2.57    8.66   -0.65
#  18    1.74   -0.11    0.00   -0.38    0.02    0.00    0.00       1.27   -7.27    0.40
#  19    0.76   -0.13    0.00   -0.19   -0.02    0.00    0.00       0.42   -3.71   -0.41
#  20    0.19   -0.14    0.00   -0.13   -0.03    0.00    0.00      -0.11   -1.73   -0.44
#  21    0.29   -0.28    0.02   -0.36   -0.05    0.00    0.00      -0.38   -3.56   -0.47
#  22    0.28   -0.26    0.01   -0.17   -0.04    0.00    0.00      -0.18   -1.58   -0.36
#  23    1.34   -0.25    0.00   -0.34   -0.03    0.00    0.00       0.72   -3.32   -0.33
#  24   -0.35   -0.36    0.02    0.28   -0.06    0.00    0.00      -0.47    1.42   -0.31
#  25    4.56   -0.30    0.01   -1.97    0.07    0.00    0.00       2.37  -12.39    0.43
#  26   -6.53    0.00    0.00    1.05    0.03    0.00    0.00      -5.45   16.89    0.56
#  27    0.03   -0.12    0.00    0.02   -0.03    0.00    0.00      -0.11    0.22   -0.39
#  28   -0.04   -0.13    0.00    0.03   -0.03    0.00    0.00      -0.17    0.31   -0.35
#  29    0.84   -0.41    0.03   -2.20    0.46    0.00    0.00      -1.29  -14.96    3.11
#  30   -0.07   -0.35    0.02    0.32   -0.08    0.00    0.00      -0.17    1.55   -0.40
#  31   -0.08   -0.25    0.01    0.13   -0.02    0.00    0.00      -0.21    0.76   -0.10
#  32    0.54   -0.48    0.03   -1.03    0.20    0.00    0.00      -0.75   -4.58    0.88
#  33   -0.24   -0.88    0.26    0.32   -0.07    0.00    0.00      -0.61    1.48   -0.31
#  34    0.54   -2.04    1.60   -0.73   -0.11    0.00    0.00      -0.74   -2.71   -0.42
#  35    0.16   -1.97    1.14   -0.35   -0.14    0.00    0.00      -1.15   -1.15   -0.47
#  36    0.22   -0.81    0.16   -0.43   -0.11    0.00    0.00      -0.97   -1.93   -0.47
#  37    0.10   -0.43    0.05   -0.15   -0.07    0.00    0.00      -0.51   -1.04   -0.47
#  38    0.22   -0.50    0.06   -0.32   -0.08    0.00    0.00      -0.61   -1.96   -0.46
#  39   -0.08   -0.98    0.68    0.11   -0.10    0.00    0.00      -0.37    0.42   -0.39
#  40    0.04   -0.50    0.06    0.15   -0.10    0.00    0.00      -0.35    0.65   -0.42
#  41    0.35   -0.19    0.00   -0.09   -0.03    0.00    0.00       0.04   -1.17   -0.43
#  42    0.67   -1.36    0.26   -0.39   -0.15    0.00    0.00      -0.97   -1.20   -0.45
#  43    1.11   -2.47    1.29   -1.10   -0.19    0.00    0.00      -1.37   -2.73   -0.47
#  44   -0.16   -2.39    0.97    0.61   -0.13    0.00    0.00      -1.10    1.55   -0.33
#  45   -0.32   -2.38    1.30   -1.07   -0.21    0.00    0.00      -2.68   -2.25   -0.43
#  46   -0.31   -1.14    0.18    0.08   -0.19    0.00    0.00      -1.38    0.16   -0.39
#  47    0.12   -0.90    0.12    0.26   -0.19    0.00    0.00      -0.60    0.62   -0.46
#  48   13.00   -1.22    0.40   -6.55    0.30    0.00    0.00       5.93  -17.45    0.80
#  49  -17.83   -0.08    0.02    6.85    0.20    0.00    0.00     -10.84   19.09    0.57
#  50   -8.80   -0.02    0.00    4.48    0.14    0.00    0.00      -4.20   18.31    0.57
#  51   -2.03   -0.44    0.09    0.57   -0.07    0.00    0.00      -1.88    1.64   -0.20
#  52   -2.11   -0.19    0.01    0.25   -0.06    0.00    0.00      -2.10    1.22   -0.28
#  53   -2.08   -0.39    0.08    1.00   -0.10    0.00    0.00      -1.49    2.80   -0.28
#  54   -2.77   -0.11    0.00    0.73   -0.03    0.00    0.00      -2.18    6.85   -0.28
#  55   -1.70   -0.45    0.13    0.82   -0.09    0.00    0.00      -1.30    2.49   -0.28
#  56   -3.62   -0.51    0.15    1.02   -0.13    0.00    0.00      -3.08    2.28   -0.28
#  57   -0.72   -0.12    0.01    0.12   -0.03    0.00    0.00      -0.75    1.11   -0.28
#  58   -2.71   -0.15    0.00    0.23   -0.04    0.00    0.00      -2.66    1.73   -0.27
#  59   -2.54   -0.51    0.22    0.89   -0.10    0.00    0.00      -2.05    2.39   -0.28
#  60   -1.98   -0.39    0.07    0.91   -0.12    0.00    0.00      -1.51    2.15   -0.28
#  61   -1.35   -0.24    0.02    0.49   -0.06    0.00    0.00      -1.14    2.15   -0.28
#  62   -0.23   -0.31    0.17    0.41   -0.05    0.00    0.00      -0.01    2.29   -0.26
#  63   -1.46   -0.19    0.05    0.34   -0.04    0.00    0.00      -1.31    2.30   -0.28
#  64   -0.46   -0.15    0.04    0.12   -0.03    0.00    0.00      -0.48    1.08   -0.28
#  65   -0.45   -0.07    0.00    0.05   -0.02    0.00    0.00      -0.49    0.80   -0.28
#  66   -2.58    0.00    0.00    0.38    0.02    0.00    0.00      -2.18    8.52    0.43
#  67   -0.27   -0.02    0.00    0.09   -0.01    0.00    0.00      -0.20    3.18   -0.22
#  68   -0.34   -0.11    0.02    0.39   -0.03    0.00    0.00      -0.06    3.93   -0.28
#  69   -0.36   -0.06    0.00    0.36   -0.01    0.00    0.00      -0.08    5.93   -0.22
#  70   -3.24   -0.24    0.04    1.34   -0.06    0.00    0.00      -2.16    6.32   -0.28
#  71   -0.42   -0.12    0.01    0.73   -0.02    0.00    0.00       0.17    5.43   -0.15
#  72   -0.36   -0.02    0.00    0.15   -0.01    0.00    0.00      -0.24    5.08   -0.21
#  73   -0.37   -0.04    0.00    0.20   -0.01    0.00    0.00      -0.22    4.39   -0.28
#  74   -0.11   -0.04    0.00    0.14   -0.01    0.00    0.00      -0.01    3.17   -0.17
#  75   -0.14   -0.02    0.00    0.08   -0.01    0.00    0.00      -0.09    2.57   -0.23
#  76   -0.11   -0.19    0.03    0.29   -0.06    0.00    0.00      -0.04    1.38   -0.27
#  77   -0.08   -0.11    0.00    0.29   -0.03    0.00    0.00       0.08    2.80   -0.27
#  78   -0.08   -0.11    0.00    0.13   -0.04    0.00    0.00      -0.09    0.93   -0.26
#  79   -0.07   -0.04    0.00    0.08   -0.01    0.00    0.00      -0.04    1.93   -0.23
#  80   -0.39   -0.44    0.26    0.66   -0.06    0.00    0.00       0.04    2.64   -0.22
#  81   -0.25   -0.66    0.70    0.67   -0.10    0.00    0.00       0.36    1.84   -0.28
#  82   -0.14   -0.12    0.01    0.18   -0.04    0.00    0.00      -0.12    1.29   -0.28
#  83   -0.14   -0.04    0.00    0.06   -0.01    0.00    0.00      -0.13    1.51   -0.28
#  84   -0.16   -0.07    0.00    0.12   -0.02    0.00    0.00      -0.12    1.53   -0.28
#  85   -0.15   -0.37    0.17    0.78   -0.06    0.00    0.00       0.37    2.93   -0.21
#  86   -0.34   -1.05    4.20    0.49   -0.06    0.00    0.00       3.24    2.19   -0.28
#  87   -1.86   -0.08    0.00    0.38   -0.02    0.00    0.00      -1.59    4.42   -0.28
#  88   -3.87   -0.32    0.07    1.67   -0.07    0.00    0.00      -2.51    6.55   -0.28
#  89   -1.93   -0.05    0.00    0.15   -0.01    0.00    0.00      -1.84    3.41   -0.27
#  90   -2.48   -0.48    0.27    0.88   -0.08    0.00    0.00      -1.89    3.21   -0.28
#  91   -1.63   -1.08    2.16    1.34   -0.12    0.00    0.00       0.67    3.11   -0.28
#  92   -0.35   -0.59    0.29    0.88   -0.11    0.00    0.00       0.12    2.17   -0.28
#  93   -3.12   -0.56    0.22    0.64   -0.10    0.00    0.00      -2.92    1.35   -0.21
#  94   -1.00   -0.20    0.03    1.09   -0.05    0.00    0.00      -0.12    6.30   -0.28
#  95   -2.14   -0.45    0.10    1.74   -0.10    0.00    0.00      -0.85    3.93   -0.22

@<TRIPOS>MOLECULE
          T531161        11
   95   100     0     0     0



@<TRIPOS>ATOM
      1 C1          0.1368    -4.2705    93.9522 C.3        1          -0.1759
      2 C2          1.0154    -5.4446    94.3887 C.3        1           0.0313
      3 C3          1.8410    -5.0371    95.6109 C.3        1           0.0286
      4 N1          2.6708    -6.1731    96.0362 N.3        1          -0.5310
      5 C4          3.6612    -6.5160    95.0069 C.3        1           0.0968
      6 C5          4.7789    -7.3115    95.6306 C.ar       1          -0.0899
      7 C6          5.3226    -6.9095    96.8373 C.ar       1          -0.0853
      8 C7          6.3485    -7.6348    97.4153 C.ar       1          -0.1136
      9 C8          6.8355    -8.7650    96.7901 C.ar       1          -0.0930
     10 C9          6.2917    -9.1745    95.5746 C.ar       1          -0.0514
     11 C10         5.2541    -8.4430    94.9995 C.ar       1          -0.0951
     12 C11         6.8110   -10.3885    94.8978 C.ar       1          -0.0806
     13 C12         7.3662   -10.2953    93.6232 C.ar       1          -0.0579
     14 C13         7.8477   -11.4274    92.9981 C.ar       1          -0.1199
     15 C14         8.4486   -11.3268    91.6198 C.3        1           0.1610
     16 N2          7.5949   -10.4883    90.7747 N.am       1          -0.7197
     17 C15         7.9364   -10.2563    89.4918 C.2        1           0.5551
     18 O1          8.9528   -10.7426    89.0359 O.2        1          -0.5237
     19 C16         7.0747    -9.4099    88.6389 C.ar       1          -0.1239
     20 C17         7.0608    -9.5937    87.2552 C.ar       1          -0.0559
     21 C18         6.2544    -8.8010    86.4654 C.ar       1          -0.1153
     22 C19         5.4606    -7.8250    87.0418 C.ar       1          -0.0737
     23 C20         5.4697    -7.6377    88.4124 C.ar       1          -0.1599
     24 C21         4.6017    -6.5726    89.0313 C.3        1           0.0330
     25 N3          3.9235    -7.1199    90.2139 N.4        1          -0.3828
     26 H1          4.6120    -7.4249    90.8852 H          1           0.4285
     27 C22         3.0897    -8.2616    89.8151 C.3        1          -0.0070
     28 C23         2.0570    -7.8034    88.7830 C.3        1           0.0206
     29 N4          1.2213    -6.7447    89.3670 N.3        1          -0.5292
     30 C24         0.1789    -6.3169    88.4246 C.3        1           0.0557
     31 C25        -0.9780    -7.3176    88.4549 C.3        1           0.0631
     32 O2         -1.5234    -7.3753    89.7745 O.3        1          -0.3024
     33 C26        -2.0712    -8.5563    90.1646 C.ar       1           0.1228
     34 C27        -2.0551    -8.9212    91.5030 C.ar       1          -0.2119
     35 C28        -2.6129   -10.1221    91.8971 C.ar       1          -0.0796
     36 C29        -3.1862   -10.9603    90.9588 C.ar       1          -0.1530
     37 C30        -3.2030   -10.5992    89.6243 C.ar       1          -0.0781
     38 C31        -2.6521    -9.3965    89.2260 C.ar       1          -0.1502
     39 C32         2.0453    -5.6051    89.7938 C.3        1           0.0256
     40 C33         3.0778    -6.0815    90.8174 C.3        1          -0.0027
     41 C34         6.2675    -8.4277    89.2144 C.ar       1          -0.0353
     42 C35         7.7805   -12.6545    93.6336 C.ar       1          -0.0656
     43 C36         7.2312   -12.7553    94.8983 C.ar       1          -0.1492
     44 C37         6.7506   -11.6271    95.5374 C.ar       1           0.1195
     45 F1          6.2188   -11.7247    96.7756 F          1          -0.1363
     46 C38         1.8313    -7.3331    96.3666 C.3        1           0.0186
     47 C39         1.0057    -7.7248    95.1392 C.3        1          -0.0078
     48 N5          0.1643    -6.5914    94.7328 N.4        1          -0.5068
     49 H2         -0.4490    -6.3386    95.4930 H          1           0.4326
     50 H3         -0.3871    -6.8536    93.9294 H          1           0.4263
     51 H4          0.7684    -3.4194    93.6969 H          1           0.0920
     52 H5         -0.4513    -4.5607    93.0816 H          1           0.1040
     53 H6         -0.5324    -3.9947    94.7673 H          1           0.0768
     54 H7          1.6844    -5.7203    93.5737 H          1           0.1452
     55 H8          2.4824    -4.1945    95.3523 H          1           0.0624
     56 H9          1.1725    -4.7505    96.4227 H          1           0.1244
     57 H10         3.1840    -7.1094    94.2269 H          1           0.0565
     58 H11         4.0648    -5.6016    94.5721 H          1           0.0995
     59 H12         4.9449    -6.0256    97.3298 H          1           0.1281
     60 H13         6.7697    -7.3162    98.3575 H          1           0.1312
     61 H14         7.6370    -9.3305    97.2422 H          1           0.1262
     62 H15         4.8259    -8.7585    94.0596 H          1           0.1195
     63 H16         7.4192    -9.3385    93.1251 H          1           0.1383
     64 H17         9.4415   -10.8821    91.6880 H          1           0.0873
     65 H18         8.5259   -12.3228    91.1836 H          1           0.0862
     66 H19         6.7838   -10.1001    91.1385 H          1           0.4021
     67 H20         7.6804   -10.3547    86.8042 H          1           0.1367
     68 H21         6.2427    -8.9423    85.3947 H          1           0.1444
     69 H22         4.8315    -7.2066    86.4188 H          1           0.1356
     70 H23         5.2208    -5.7257    89.3271 H          1           0.1421
     71 H24         3.8578    -6.2430    88.3059 H          1           0.1365
     72 H25         3.7196    -9.0369    89.3793 H          1           0.1330
     73 H26         2.5765    -8.6600    90.6904 H          1           0.1422
     74 H27         2.5698    -7.4176    87.9020 H          1           0.0603
     75 H28         1.4285    -8.6471    88.4981 H          1           0.1215
     76 H29        -0.1865    -5.3304    88.7101 H          1           0.1014
     77 H30         0.5948    -6.2728    87.4180 H          1           0.0707
     78 H31        -1.7515    -7.0001    87.7556 H          1           0.0743
     79 H32        -0.6128    -8.3041    88.1693 H          1           0.0611
     80 H33        -1.6068    -8.2671    92.2362 H          1           0.1233
     81 H34        -2.6006   -10.4065    92.9389 H          1           0.1262
     82 H35        -3.6214   -11.8989    91.2687 H          1           0.1271
     83 H36        -3.6510   -11.2558    88.8931 H          1           0.1321
     84 H37        -2.6694    -9.1128    88.1841 H          1           0.1298
     85 H38         2.5580    -5.1830    88.9294 H          1           0.0610
     86 H39         1.4086    -4.8450    90.2463 H          1           0.1265
     87 H40         2.5647    -6.4910    91.6875 H          1           0.1430
     88 H41         3.6993    -5.2402    91.1247 H          1           0.1385
     89 H42         6.2707    -8.2831    90.2847 H          1           0.1470
     90 H43         8.1586   -13.5375    93.1397 H          1           0.1395
     91 H44         7.1813   -13.7158    95.3897 H          1           0.1436
     92 H45         2.4655    -8.1694    96.6607 H          1           0.0609
     93 H46         1.1627    -7.0764    97.1883 H          1           0.1264
     94 H47         1.6748    -7.9922    94.3214 H          1           0.1380
     95 H48         0.3727    -8.5777    95.3843 H          1           0.1418
@<TRIPOS>BOND
     1    1    2 1
     2    1   51 1
     3    1   52 1
     4    1   53 1
     5    2   48 1
     6    2    3 1
     7    2   54 1
     8    3    4 1
     9    3   55 1
    10    3   56 1
    11    4    5 1
    12    4   46 1
    13    5    6 1
    14    5   57 1
    15    5   58 1
    16    6   11 ar
    17    6    7 ar
    18    7    8 ar
    19    7   59 1
    20    8    9 ar
    21    8   60 1
    22    9   10 ar
    23    9   61 1
    24   10   11 ar
    25   10   12 1
    26   11   62 1
    27   12   44 ar
    28   12   13 ar
    29   13   14 ar
    30   13   63 1
    31   14   15 1
    32   14   42 ar
    33   15   16 1
    34   15   64 1
    35   15   65 1
    36   16   17 am
    37   16   66 1
    38   17   18 2
    39   17   19 1
    40   19   41 ar
    41   19   20 ar
    42   20   21 ar
    43   20   67 1
    44   21   22 ar
    45   21   68 1
    46   22   23 ar
    47   22   69 1
    48   23   24 1
    49   23   41 ar
    50   24   25 1
    51   24   70 1
    52   24   71 1
    53   25   26 1
    54   25   40 1
    55   25   27 1
    56   27   28 1
    57   27   72 1
    58   27   73 1
    59   28   29 1
    60   28   74 1
    61   28   75 1
    62   29   30 1
    63   29   39 1
    64   30   31 1
    65   30   76 1
    66   30   77 1
    67   31   32 1
    68   31   78 1
    69   31   79 1
    70   32   33 1
    71   33   38 ar
    72   33   34 ar
    73   34   35 ar
    74   34   80 1
    75   35   36 ar
    76   35   81 1
    77   36   37 ar
    78   36   82 1
    79   37   38 ar
    80   37   83 1
    81   38   84 1
    82   39   40 1
    83   39   85 1
    84   39   86 1
    85   40   87 1
    86   40   88 1
    87   41   89 1
    88   42   43 ar
    89   42   90 1
    90   43   44 ar
    91   43   91 1
    92   44   45 1
    93   46   47 1
    94   46   92 1
    95   46   93 1
    96   47   48 1
    97   47   94 1
    98   47   95 1
    99   48   49 1
   100   48   50 1
##########                 Name:              T530245
##########          Protonation:                   94
##########               SMILES:   c1cc(c(cc1/C=C\C(=O)NCCCCC[NH+]2CCCN(CC2)C(=O)Nc3ccc(c(c3)F)F)Cl)Cl
##########            Long Name:   -enoyl]amino]pentyl]-N-(3,4-difluorophenyl)-1,4-diazepan-4-ium-1-carboxamide
##########          FlexRecCode: 1
##########               Number:                  181
##########   Ligand Source File: /raidb/db2/rgc/tcams/tcams-0000662.db2.gz
##########           GlobalRank: 156
##########                 Rank:                    1
##########               Setnum:                  184
##########             Matchnum:                  367
##########                Cloud:                    1
##########        Electrostatic:           -38.409382
##########        Van der Waals:           -33.518566
##########  Ligand Polar Desolv:             9.541657
########## Ligand Apolar Desolv:            -4.585824
##########      Internal Energy:             0.000000
##########      Receptor Energy: 0.0
########## Receptor Desolvation:             0.000000
########## Receptor Hydrophobic:             0.000000
##########         Total Energy: -66.97
##########        Ligand Charge:             1.000000
##########            Arbitrary:    +999.9990
##########     heavy atom count:   36
##########           pose count:    1
##########        Ligand Energy:             0.000000
# num electro vdwattr vdwrepu polsolv apolsol rdesolv rhydroe totalscore fullpol fullapo
#   1    1.03   -1.95    2.21   -0.11   -0.28    0.00    0.00       0.90   -0.18   -0.47
#   2   -0.62   -2.04    0.71   -0.12   -0.18    0.00    0.00      -2.26   -0.23   -0.34
#   3    1.45   -2.02    0.58   -0.47   -0.24    0.00    0.00      -0.70   -0.91   -0.47
#   4    1.52   -1.56    0.23   -0.59   -0.21    0.00    0.00      -0.62   -1.27   -0.46
#   5   -1.19   -1.40    0.17    0.91   -0.24    0.00    0.00      -1.75    2.49   -0.67
#   6    3.93   -1.37    0.27   -3.71    0.55    0.00    0.00      -0.33  -11.33    1.67
#   7   -6.37   -1.26    0.22    3.80   -0.69    0.00    0.00      -4.29   11.25   -2.03
#   8    4.93   -1.72    0.30   -2.84    0.14    0.00    0.00       0.81   -6.63    0.32
#   9   10.27   -0.79    0.04   -3.89    0.40    0.00    0.00       6.04  -13.94    1.44
#  10   -2.15   -0.62    0.03    0.69   -0.15    0.00    0.00      -2.20    2.08   -0.46
#  11    5.48   -1.07    0.15   -1.95   -0.10    0.00    0.00       2.50   -4.50   -0.24
#  12    0.38   -1.20    0.32   -0.14   -0.14    0.00    0.00      -0.78   -0.36   -0.36
#  13   13.57   -1.60    1.03   -3.25    0.05    0.00    0.00       9.80  -11.27    0.18
#  14  -23.20   -0.13    0.04    4.70    0.12    0.00    0.00     -18.46   16.91    0.44
#  15    0.59   -1.15    0.35   -0.03   -0.11    0.00    0.00      -0.34   -0.09   -0.35
#  16    3.60   -0.87    0.20   -1.11   -0.06    0.00    0.00       1.76   -3.98   -0.20
#  17    0.43   -0.85    0.18   -0.82   -0.06    0.00    0.00      -1.13   -2.89   -0.22
#  18    0.32   -0.38    0.03   -0.45   -0.04    0.00    0.00      -0.52   -2.29   -0.22
#  19   -0.19   -0.49    0.06    0.32   -0.09    0.00    0.00      -0.40    1.43   -0.42
#  20    0.89   -0.39    0.01   -1.54    0.39    0.00    0.00      -0.64   -9.23    2.33
#  21   -0.57   -0.56    0.02    1.10   -0.14    0.00    0.00      -0.15    4.50   -0.58
#  22    0.46   -0.96    0.09   -0.78    0.10    0.00    0.00      -1.09   -2.21    0.29
#  23    0.24   -0.60    0.04   -0.54   -0.11    0.00    0.00      -0.97   -2.24   -0.45
#  24    0.02   -0.58    0.06   -0.12   -0.10    0.00    0.00      -0.72   -0.52   -0.44
#  25    0.12   -0.62    0.07   -0.06   -0.06    0.00    0.00      -0.56   -0.31   -0.31
#  26    0.04   -0.44    0.02   -0.02   -0.05    0.00    0.00      -0.44   -0.13   -0.29
#  27    0.07   -0.58    0.03   -0.04   -0.07    0.00    0.00      -0.58   -0.15   -0.30
#  28    0.04   -3.14    1.75   -0.04   -0.28    0.00    0.00      -1.67   -0.12   -0.95
#  29    0.09   -0.65    0.05   -0.04   -0.07    0.00    0.00      -0.62   -0.16   -0.29
#  30    0.64   -1.44    0.11   -0.03   -0.27    0.00    0.00      -0.99   -0.09   -0.95
#  31    1.06   -0.87    0.16   -0.12   -0.12    0.00    0.00       0.11   -0.48   -0.46
#  32    0.43   -0.93    0.17   -0.16   -0.12    0.00    0.00      -0.62   -0.57   -0.45
#  33    0.97   -0.39    0.03   -0.08   -0.08    0.00    0.00       0.45   -0.39   -0.39
#  34   -2.25   -0.47    0.03    0.56   -0.10    0.00    0.00      -2.22    2.33   -0.42
#  35    0.69   -1.51    0.20   -0.43   -0.16    0.00    0.00      -1.21   -1.06   -0.40
#  36   -0.68   -1.61    0.24   -0.05   -0.18    0.00    0.00      -2.28   -0.09   -0.34
#  37    0.96   -1.05    0.11   -0.04   -0.28    0.00    0.00      -0.29   -0.06   -0.47
#  38   -3.17   -0.48    0.10    1.06   -0.13    0.00    0.00      -2.63    2.19   -0.28
#  39   -2.20   -0.26    0.02    1.24   -0.08    0.00    0.00      -1.28    4.25   -0.28
#  40   -1.62   -0.02    0.00    1.86    0.08    0.00    0.00       0.30    9.99    0.41
#  41   -1.80   -0.13    0.00    0.30   -0.02    0.00    0.00      -1.65    2.62   -0.20
#  42   -2.07   -0.29    0.04    0.60   -0.07    0.00    0.00      -1.79    2.29   -0.28
#  43   -4.34   -0.52    0.11    2.03   -0.12    0.00    0.00      -2.84    4.59   -0.28
#  44   -4.10   -0.49    0.28    1.83   -0.09    0.00    0.00      -2.57    4.85   -0.25
#  45   -3.38   -0.19    0.01    0.60   -0.05    0.00    0.00      -3.00    2.98   -0.24
#  46   -6.10   -0.84    0.69    2.60   -0.10    0.00    0.00      -3.75    6.10   -0.23
#  47   -2.12   -0.15    0.01    0.67   -0.04    0.00    0.00      -1.62    4.63   -0.26
#  48   -4.54   -0.97    0.92    1.55   -0.11    0.00    0.00      -3.16    3.86   -0.27
#  49   -3.49   -0.66    0.49    1.13   -0.07    0.00    0.00      -2.59    3.85   -0.23
#  50   -1.60   -0.09    0.00    0.34   -0.02    0.00    0.00      -1.37    3.84   -0.28
#  51   -0.42   -0.79    0.68    0.45   -0.11    0.00    0.00      -0.18    1.21   -0.28
#  52   -0.27   -0.16    0.02    0.18   -0.04    0.00    0.00      -0.28    1.19   -0.28
#  53   -0.24   -0.04    0.00    0.09   -0.01    0.00    0.00      -0.20    2.11   -0.28
#  54   -0.20   -0.14    0.02    0.26   -0.04    0.00    0.00      -0.09    2.05   -0.28
#  55   -0.09   -0.39    0.15    0.05   -0.07    0.00    0.00      -0.35    0.19   -0.28
#  56   -0.12   -0.11    0.01    0.02   -0.03    0.00    0.00      -0.23    0.19   -0.28
#  57   -0.47    0.00    0.00    0.32    0.02    0.00    0.00      -0.13    7.52    0.56
#  58   -0.12   -0.19    0.03    0.71   -0.06    0.00    0.00       0.36    3.46   -0.28
#  59   -0.23   -0.13    0.02    0.42   -0.04    0.00    0.00       0.03    2.81   -0.28
#  60   -0.18   -0.05    0.00    0.03   -0.01    0.00    0.00      -0.21    0.60   -0.25
#  61   -2.37   -0.16    0.01    0.13   -0.04    0.00    0.00      -2.43    0.90   -0.28
#  62   -0.92   -0.23    0.04    0.48   -0.07    0.00    0.00      -0.70    1.87   -0.28
#  63   -1.84   -0.09    0.00    0.20   -0.02    0.00    0.00      -1.75    2.39   -0.28
#  64   -2.29   -0.07    0.00    0.39   -0.02    0.00    0.00      -1.99    5.83   -0.26
#  65   -3.09   -0.25    0.05    1.09   -0.06    0.00    0.00      -2.25    5.09   -0.28
#  66   -1.55   -0.12    0.01    0.12   -0.03    0.00    0.00      -1.57    1.01   -0.24
#  67   -0.49   -0.34    0.05    0.26   -0.06    0.00    0.00      -0.58    0.88   -0.21

@<TRIPOS>MOLECULE
          T530245        94
   67    69     0     0     0



@<TRIPOS>ATOM
      1 F1          9.7133   -11.4494    99.3857 F          1          -0.1215
      2 C1          8.8737   -10.9022    98.4797 C.ar       1           0.0619
      3 C2          8.5800    -9.5507    98.5373 C.ar       1          -0.1010
      4 C3          7.7214    -8.9890    97.6124 C.ar       1          -0.1225
      5 C4          7.1524    -9.7801    96.6232 C.ar       1           0.1663
      6 N1          6.2822    -9.2112    95.6848 N.am       1          -0.6757
      7 C5          5.5264    -8.1482    96.0244 C.2        1           0.7018
      8 O1          5.1611    -8.0048    97.1752 O.2        1          -0.5489
      9 N2          5.1756    -7.2443    95.0883 N.am       1          -0.6356
     10 C6          4.3484    -6.0605    95.4358 C.3        1           0.0948
     11 C7          4.6443    -4.7281    94.7891 C.3        1          -0.1571
     12 C8          3.9079    -4.6610    93.4353 C.3        1          -0.0104
     13 N3          4.4892    -5.5118    92.4625 N.4        1          -0.3664
     14 H1          5.4499    -5.2338    92.3288 H          1           0.4172
     15 C9          3.7733    -5.3239    91.1938 C.3        1          -0.0209
     16 C10         4.6463    -5.8160    90.0377 C.3        1          -0.1459
     17 C11         3.9006    -5.6204    88.7161 C.3        1          -0.1156
     18 C12         2.5950    -6.4175    88.7442 C.3        1          -0.1318
     19 C13         1.8494    -6.2217    87.4227 C.3        1           0.1181
     20 N4          0.5992    -6.9850    87.4497 N.am       1          -0.7307
     21 C14        -0.5300    -6.4123    87.9116 C.2        1           0.5380
     22 O2         -0.5111    -5.2612    88.3063 O.2        1          -0.5205
     23 C15        -1.7792    -7.1749    87.9388 C.2        1          -0.2159
     24 C16        -2.1031    -7.8996    89.0289 C.2        1          -0.0117
     25 C17        -1.3235    -7.7528    90.2683 C.ar       1          -0.0606
     26 C18        -0.6591    -8.8557    90.8151 C.ar       1          -0.0241
     27 C19         0.0701    -8.7104    91.9769 C.ar       1          -0.0388
     28 Cl1         0.8963   -10.0770    92.6576 Cl         1          -0.0531
     29 C20         0.1450    -7.4747    92.6018 C.ar       1          -0.0200
     30 Cl2         1.0649    -7.3003    94.0637 Cl         1          -0.0474
     31 C21        -0.5104    -6.3791    92.0649 C.ar       1          -0.1072
     32 C22        -1.2388    -6.5090    90.9016 C.ar       1          -0.0810
     33 C23         4.4623    -6.9378    92.8002 C.3        1          -0.0472
     34 C24         5.6078    -7.3949    93.6755 C.3        1           0.1144
     35 C25         7.4473   -11.1353    96.5652 C.ar       1          -0.1327
     36 C26         8.3115   -11.6938    97.4897 C.ar       1           0.0911
     37 F2          8.6038   -13.0114    97.4312 F          1          -0.1199
     38 H2          9.0222    -8.9348    99.3064 H          1           0.1566
     39 H3          7.4925    -7.9346    97.6588 H          1           0.1453
     40 H4          6.2234    -9.5823    94.7905 H          1           0.4114
     41 H5          3.3117    -6.3097    95.2093 H          1           0.0927
     42 H6          4.4160    -5.9212    96.5147 H          1           0.0953
     43 H7          4.2963    -3.9222    95.4354 H          1           0.1283
     44 H8          5.7176    -4.6300    94.6273 H          1           0.0947
     45 H9          2.8684    -4.9532    93.5839 H          1           0.1287
     46 H10         3.9360    -3.6348    93.0688 H          1           0.1385
     47 H11         2.8431    -5.8918    91.2139 H          1           0.1346
     48 H12         3.5502    -4.2659    91.0556 H          1           0.1316
     49 H13         5.5765    -5.2483    90.0177 H          1           0.0870
     50 H14         4.8694    -6.8741    90.1758 H          1           0.0894
     51 H15         3.6776    -4.5625    88.5780 H          1           0.0797
     52 H16         4.5228    -5.9710    87.8927 H          1           0.0787
     53 H17         2.8182    -7.4755    88.8824 H          1           0.0738
     54 H18         1.9730    -6.0668    89.5679 H          1           0.0745
     55 H19         1.6264    -5.1638    87.2846 H          1           0.0696
     56 H20         2.4715    -6.5724    86.5992 H          1           0.0697
     57 H21         0.5842    -7.9024    87.1353 H          1           0.4012
     58 H22        -2.4415    -7.1572    87.0858 H          1           0.1386
     59 H23        -2.9346    -8.5878    88.9923 H          1           0.1472
     60 H24        -0.7172    -9.8183    90.3292 H          1           0.1301
     61 H25        -0.4474    -5.4196    92.5567 H          1           0.1444
     62 H26        -1.7458    -5.6525    90.4822 H          1           0.1400
     63 H27         3.5253    -7.1533    93.3137 H          1           0.1317
     64 H28         4.4839    -7.5120    91.8740 H          1           0.1470
     65 H29         6.4880    -6.7789    93.4903 H          1           0.1032
     66 H30         5.8379    -8.4399    93.4683 H          1           0.1343
     67 H31         7.0053   -11.7522    95.7968 H          1           0.1630
@<TRIPOS>BOND
     1    1    2 1
     2    2   36 ar
     3    2    3 ar
     4    3    4 ar
     5    3   38 1
     6    4    5 ar
     7    4   39 1
     8    5    6 1
     9    5   35 ar
    10    6    7 am
    11    6   40 1
    12    7    8 2
    13    7    9 am
    14    9   34 1
    15    9   10 1
    16   10   11 1
    17   10   41 1
    18   10   42 1
    19   11   12 1
    20   11   43 1
    21   11   44 1
    22   12   13 1
    23   12   45 1
    24   12   46 1
    25   13   14 1
    26   13   15 1
    27   13   33 1
    28   15   16 1
    29   15   47 1
    30   15   48 1
    31   16   17 1
    32   16   49 1
    33   16   50 1
    34   17   18 1
    35   17   51 1
    36   17   52 1
    37   18   19 1
    38   18   53 1
    39   18   54 1
    40   19   20 1
    41   19   55 1
    42   19   56 1
    43   20   21 am
    44   20   57 1
    45   21   22 2
    46   21   23 1
    47   23   24 2
    48   23   58 1
    49   24   25 1
    50   24   59 1
    51   25   32 ar
    52   25   26 ar
    53   26   27 ar
    54   26   60 1
    55   27   28 1
    56   27   29 ar
    57   29   30 1
    58   29   31 ar
    59   31   32 ar
    60   31   61 1
    61   32   62 1
    62   33   34 1
    63   33   63 1
    64   33   64 1
    65   34   65 1
    66   34   66 1
    67   35   36 ar
    68   35   67 1
    69   36   37 1
##########                 Name:              T536427
##########          Protonation:                   96
##########               SMILES:   1cc(ccc1NC(=O)N[C@@H]2CC[NH+](C2)CCCCCNC(=O)[C@H]3C[C@H]3c4ccc(c(c4)Cl)Cl)Cl
##########            Long Name:   ]pyrrolidin-1-ium-1-yl]pentyl]-2-(3,4-dichlorophenyl)cyclopropanecarboxamide
##########          FlexRecCode: 1
##########               Number:                  252
##########   Ligand Source File: /raidb/db2/rgc/tcams/tcams-0001550.db2.gz
##########           GlobalRank: 159
##########                 Rank:                    1
##########               Setnum:                  151
##########             Matchnum:                 1533
##########                Cloud:                    1
##########        Electrostatic:           -48.368046
##########        Van der Waals:           -27.569736
##########  Ligand Polar Desolv:            12.280339
########## Ligand Apolar Desolv:            -3.292084
##########      Internal Energy:             0.000000
##########      Receptor Energy: 0.0
########## Receptor Desolvation:             0.000000
########## Receptor Hydrophobic:             0.000000
##########         Total Energy: -66.95
##########        Ligand Charge:             1.000000
##########            Arbitrary:    +999.9990
##########     heavy atom count:   35
##########           pose count:    1
##########        Ligand Energy:             0.000000
# num electro vdwattr vdwrepu polsolv apolsol rdesolv rhydroe totalscore fullpol fullapo
#   1    0.57   -5.20    2.09   -0.24   -0.59    0.00    0.00      -3.37   -0.40   -0.99
#   2    0.33   -1.56    0.18   -0.26   -0.16    0.00    0.00      -1.48   -0.49   -0.30
#   3    0.40   -1.56    0.21   -0.26   -0.19    0.00    0.00      -1.38   -0.63   -0.46
#   4    0.60   -1.41    0.18   -0.33   -0.14    0.00    0.00      -1.10   -0.93   -0.40
#   5   -1.66   -1.46    0.20    0.70   -0.27    0.00    0.00      -2.49    1.76   -0.68
#   6    9.86   -1.38    0.11   -4.44    0.77    0.00    0.00       4.92   -9.81    1.70
#   7  -12.87   -1.30    0.16    3.87   -0.79    0.00    0.00     -10.93   10.22   -2.09
#   8    9.31   -1.10    0.16   -1.89    0.10    0.00    0.00       6.59   -5.98    0.32
#   9   18.06   -1.79    0.51   -6.80    0.95    0.00    0.00      10.92  -15.29    2.14
#  10   -5.78   -1.44    0.71    1.42   -0.15    0.00    0.00      -5.24    3.07   -0.33
#  11    6.75   -2.48    1.12   -2.41   -0.16    0.00    0.00       2.83   -4.18   -0.28
#  12    0.47   -1.80    0.45    0.18   -0.23    0.00    0.00      -0.93    0.35   -0.45
#  13   13.51   -1.24    0.23   -4.83    0.18    0.00    0.00       7.83  -12.28    0.45
#  14  -19.27   -0.04    0.00    5.84    0.19    0.00    0.00     -13.28   17.11    0.56
#  15    0.22   -0.57    0.03    0.08   -0.10    0.00    0.00      -0.33    0.27   -0.32
#  16    2.50   -0.37    0.01   -0.88   -0.04    0.00    0.00       1.22   -4.28   -0.21
#  17    2.08   -0.87    0.27   -0.79   -0.06    0.00    0.00       0.63   -2.88   -0.22
#  18    1.05   -0.41    0.05   -0.48   -0.04    0.00    0.00       0.17   -2.39   -0.22
#  19   -0.30   -0.98    0.39    0.44   -0.12    0.00    0.00      -0.57    1.58   -0.43
#  20    9.12   -2.56    1.11   -3.35    0.81    0.00    0.00       5.13   -9.60    2.32
#  21   -9.13   -1.21    0.25    1.37   -0.17    0.00    0.00      -8.90    5.02   -0.62
#  22    5.72   -0.33    0.01   -0.49    0.04    0.00    0.00       4.94   -3.09    0.27
#  23    6.10   -1.61    0.80   -0.64   -0.13    0.00    0.00       4.51   -1.98   -0.41
#  24    3.51   -0.62    0.09   -0.36   -0.10    0.00    0.00       2.52   -1.46   -0.41
#  25    1.70   -0.67    0.08   -0.37   -0.11    0.00    0.00       0.63   -1.25   -0.39
#  26    0.25   -0.69    0.07   -0.02   -0.06    0.00    0.00      -0.46   -0.11   -0.30
#  27    0.22   -0.74    0.25   -0.03   -0.05    0.00    0.00      -0.34   -0.17   -0.29
#  28    0.30   -1.31    1.35   -0.06   -0.07    0.00    0.00       0.19   -0.41   -0.46
#  29    0.07   -1.05    0.55   -0.02   -0.05    0.00    0.00      -0.50   -0.12   -0.30
#  30    0.10   -1.19    0.20   -0.02   -0.19    0.00    0.00      -1.10   -0.09   -0.95
#  31    0.11   -0.77    0.10   -0.03   -0.07    0.00    0.00      -0.66   -0.12   -0.30
#  32    0.11   -2.03    0.33   -0.03   -0.32    0.00    0.00      -1.94   -0.08   -0.95
#  33    0.33   -0.87    0.09   -0.11   -0.11    0.00    0.00      -0.66   -0.43   -0.45
#  34    0.60   -0.76    0.17    0.18   -0.14    0.00    0.00       0.05    0.58   -0.45
#  35    1.62   -1.89    0.60   -0.62   -0.22    0.00    0.00      -0.51   -1.30   -0.46
#  36    0.80   -1.91    0.61   -0.42   -0.24    0.00    0.00      -1.16   -0.79   -0.46
#  37   -0.42   -0.39    0.09    0.20   -0.08    0.00    0.00      -0.60    0.67   -0.28
#  38   -0.56   -0.27    0.05    0.18   -0.05    0.00    0.00      -0.64    0.83   -0.22
#  39   -6.45   -0.03    0.00    3.32    0.23    0.00    0.00      -2.92    8.48    0.59
#  40   -8.67   -0.08    0.01    4.44    0.23    0.00    0.00      -4.08   11.42    0.58
#  41   -6.14   -0.89    1.57    0.80   -0.11    0.00    0.00      -4.77    1.86   -0.26
#  42   -3.54   -1.54    2.93    1.42   -0.16    0.00    0.00      -0.90    2.45   -0.28
#  43   -6.64   -1.56    3.49    0.50   -0.17    0.00    0.00      -4.38    0.84   -0.28
#  44   -4.02   -0.58    0.19    1.89   -0.08    0.00    0.00      -2.60    5.17   -0.22
#  45   -5.14   -1.22    1.83    2.65   -0.15    0.00    0.00      -2.02    4.92   -0.28
#  46   -2.87   -0.14    0.00    0.69   -0.03    0.00    0.00      -2.35    5.59   -0.28
#  47   -3.22   -0.24    0.02    1.19   -0.07    0.00    0.00      -2.31    4.93   -0.28
#  48   -1.24   -0.08    0.00    0.23   -0.02    0.00    0.00      -1.11    3.13   -0.23
#  49   -1.12   -0.08    0.00    0.25   -0.02    0.00    0.00      -0.98    3.33   -0.28
#  50   -0.99   -0.77    1.25    0.42   -0.08    0.00    0.00      -0.15    1.58   -0.28
#  51   -2.47   -0.38    0.11    0.40   -0.08    0.00    0.00      -2.42    1.44   -0.28
#  52   -0.67   -0.06    0.00    0.10   -0.02    0.00    0.00      -0.64    1.76   -0.28
#  53   -0.26   -0.07    0.00    0.15   -0.02    0.00    0.00      -0.20    1.89   -0.28
#  54   -0.14   -0.13    0.01    0.05   -0.04    0.00    0.00      -0.24    0.42   -0.28
#  55   -0.14   -0.98    2.78    0.08   -0.09    0.00    0.00       1.65    0.24   -0.28
#  56  -12.19   -0.12    0.01    3.41    0.27    0.00    0.00      -8.62    7.32    0.57
#  57   -7.08   -1.98    4.93    1.19   -0.12    0.00    0.00      -3.06    2.77   -0.28
#  58   -3.26   -0.30    0.09    0.51   -0.06    0.00    0.00      -3.03    2.23   -0.28
#  59   -1.79   -0.07    0.00    0.07   -0.01    0.00    0.00      -1.80    1.11   -0.22
#  60   -3.67   -0.25    0.02    0.45   -0.08    0.00    0.00      -3.52    1.67   -0.28
#  61   -0.88   -0.08    0.01    0.09   -0.02    0.00    0.00      -0.88    1.14   -0.19
#  62   -0.31   -0.17    0.08    0.08   -0.03    0.00    0.00      -0.35    0.75   -0.28
#  63   -0.53   -0.36    0.13    0.18   -0.06    0.00    0.00      -0.63    0.85   -0.28
#  64   -4.78   -0.23    0.08    0.94   -0.04    0.00    0.00      -4.04    6.11   -0.28
#  65   -2.79   -0.12    0.00    0.64   -0.03    0.00    0.00      -2.29    6.19   -0.26
#  66   -2.47   -0.40    0.06    1.20   -0.12    0.00    0.00      -1.73    2.77   -0.28
#  67   -1.23   -0.44    0.12    0.62   -0.14    0.00    0.00      -1.06    1.28   -0.28

@<TRIPOS>MOLECULE
          T536427        96
   67    70     0     0     0



@<TRIPOS>ATOM
      1 Cl1         8.6133   -13.5948    97.2244 Cl         1          -0.0590
      2 C1          8.1904   -11.9111    97.2329 C.ar       1          -0.0452
      3 C2          7.3502   -11.4051    96.2568 C.ar       1          -0.0892
      4 C3          7.0118   -10.0661    96.2615 C.ar       1          -0.1068
      5 C4          7.5156    -9.2274    97.2468 C.ar       1           0.1559
      6 N1          7.1739    -7.8697    97.2543 N.am       1          -0.6768
      7 C5          6.9046    -7.2363    96.0955 C.2        1           0.7099
      8 O1          6.9585    -7.8440    95.0436 O.2        1          -0.5580
      9 N2          6.5756    -5.9294    96.1026 N.am       1          -0.7355
     10 C6          6.2830    -5.2408    94.8431 C.3        1           0.1520
     11 C7          5.8753    -3.7825    95.1103 C.3        1          -0.1586
     12 C8          4.3388    -3.9011    95.1622 C.3        1          -0.0133
     13 N3          4.0880    -4.7771    94.0027 N.4        1          -0.3870
     14 H1          4.2525    -4.2800    93.1402 H          1           0.4303
     15 C9          2.7177    -5.3051    94.0408 C.3        1          -0.0092
     16 C10         2.4855    -6.2089    92.8284 C.3        1          -0.1482
     17 C11         2.6853    -5.4013    91.5444 C.3        1          -0.1149
     18 C12         2.4531    -6.3051    90.3320 C.3        1          -0.1325
     19 C13         2.6528    -5.4974    89.0479 C.3        1           0.1192
     20 N4          4.0193    -4.9708    89.0098 N.am       1          -0.7322
     21 C14         5.0683    -5.8169    89.0288 C.2        1           0.5380
     22 O2          4.8809    -7.0141    89.0774 O.2        1          -0.5141
     23 C15         6.4740    -5.2752    88.9897 C.3        1          -0.1858
     24 C16         7.6217    -6.2793    89.1152 C.3        1          -0.1427
     25 C17         7.3290    -5.6165    87.7676 C.3        1          -0.0808
     26 C18         6.7008    -6.4687    86.6951 C.ar       1          -0.0355
     27 C19         7.2622    -7.6881    86.3642 C.ar       1          -0.0394
     28 C20         6.6871    -8.4704    85.3808 C.ar       1          -0.1059
     29 C21         5.5486    -8.0339    84.7272 C.ar       1          -0.0267
     30 Cl2         4.8253    -9.0166    83.4922 Cl         1          -0.0527
     31 C22         4.9860    -6.8132    85.0589 C.ar       1          -0.0372
     32 Cl3         3.5570    -6.2643    84.2402 Cl         1          -0.0512
     33 C23         5.5603    -6.0334    86.0469 C.ar       1          -0.0896
     34 C24         5.0606    -5.8619    94.1663 C.3        1          -0.0190
     35 C25         8.3585    -9.7376    98.2252 C.ar       1          -0.1294
     36 C26         8.6896   -11.0786    98.2190 C.ar       1          -0.0874
     37 H2          6.9588   -12.0578    95.4903 H          1           0.1399
     38 H3          6.3563    -9.6715    95.4993 H          1           0.1424
     39 H4          7.1310    -7.3850    98.0933 H          1           0.4117
     40 H5          6.5325    -5.4447    96.9417 H          1           0.4063
     41 H6          7.1468    -5.2804    94.1795 H          1           0.1303
     42 H7          6.2731    -3.4336    96.0632 H          1           0.1025
     43 H8          6.1901    -3.1325    94.2939 H          1           0.1201
     44 H9          4.0123    -4.3728    96.0890 H          1           0.1363
     45 H10         3.8651    -2.9283    95.0293 H          1           0.1371
     46 H11         2.5753    -5.8805    94.9555 H          1           0.1327
     47 H12         2.0087    -4.4775    94.0182 H          1           0.1310
     48 H13         3.1946    -7.0365    92.8510 H          1           0.0885
     49 H14         1.4689    -6.6007    92.8567 H          1           0.0893
     50 H15         1.9762    -4.5736    91.5217 H          1           0.0788
     51 H16         3.7020    -5.0094    91.5160 H          1           0.0781
     52 H17         3.1621    -7.1326    90.3546 H          1           0.0741
     53 H18         1.4363    -6.6970    90.3602 H          1           0.0746
     54 H19         2.4873    -6.1413    88.1842 H          1           0.0688
     55 H20         1.9438    -4.6698    89.0254 H          1           0.0689
     56 H21         4.1692    -4.0132    88.9710 H          1           0.4012
     57 H22         6.6122    -4.2932    89.4422 H          1           0.1309
     58 H23         8.5152    -5.9578    89.6505 H          1           0.1161
     59 H24         7.3601    -7.3315    89.2261 H          1           0.1055
     60 H25         8.0298    -4.8593    87.4163 H          1           0.1297
     61 H26         8.1510    -8.0292    86.8742 H          1           0.1258
     62 H27         7.1266    -9.4225    85.1222 H          1           0.1367
     63 H28         5.1197    -5.0829    86.3089 H          1           0.1383
     64 H29         5.3365    -6.2683    93.1931 H          1           0.1459
     65 H30         4.6430    -6.6485    94.7949 H          1           0.1376
     66 H31         8.7517    -9.0875    98.9927 H          1           0.1368
     67 H32         9.3417   -11.4768    98.9823 H          1           0.1421
@<TRIPOS>BOND
     1    1    2 1
     2    2   36 ar
     3    2    3 ar
     4    3    4 ar
     5    3   37 1
     6    4    5 ar
     7    4   38 1
     8    5    6 1
     9    5   35 ar
    10    6    7 am
    11    6   39 1
    12    7    8 2
    13    7    9 am
    14    9   10 1
    15    9   40 1
    16   10   34 1
    17   10   11 1
    18   10   41 1
    19   11   12 1
    20   11   42 1
    21   11   43 1
    22   12   13 1
    23   12   44 1
    24   12   45 1
    25   13   14 1
    26   13   15 1
    27   13   34 1
    28   15   16 1
    29   15   46 1
    30   15   47 1
    31   16   17 1
    32   16   48 1
    33   16   49 1
    34   17   18 1
    35   17   50 1
    36   17   51 1
    37   18   19 1
    38   18   52 1
    39   18   53 1
    40   19   20 1
    41   19   54 1
    42   19   55 1
    43   20   21 am
    44   20   56 1
    45   21   22 2
    46   21   23 1
    47   23   25 1
    48   23   24 1
    49   23   57 1
    50   24   25 1
    51   24   58 1
    52   24   59 1
    53   25   26 1
    54   25   60 1
    55   26   33 ar
    56   26   27 ar
    57   27   28 ar
    58   27   61 1
    59   28   29 ar
    60   28   62 1
    61   29   30 1
    62   29   31 ar
    63   31   32 1
    64   31   33 ar
    65   33   63 1
    66   34   64 1
    67   34   65 1
    68   35   36 ar
    69   35   66 1
    70   36   67 1
##########                 Name:              T538874
##########          Protonation:                   17
##########               SMILES:   CC[NH+](CC)CCC[C@@H](C)Nc1cc([nH+]c2c1ccc(c2)Cl)/C=C\c3ccccc3Cl
##########            Long Name:   )-2-(2-chlorophenyl)vinyl]quinolin-1-ium-4-yl]amino]pentyl]-diethyl-ammonium
##########          FlexRecCode: 1
##########               Number:                  248
##########   Ligand Source File: /raidb/db2/rgc/tcams/tcams-0001842.db2.gz
##########           GlobalRank: 159
##########                 Rank:                    1
##########               Setnum:                  190
##########             Matchnum:                 6042
##########                Cloud:                    1
##########        Electrostatic:           -44.066769
##########        Van der Waals:           -26.865223
##########  Ligand Polar Desolv:             9.062661
########## Ligand Apolar Desolv:            -5.077923
##########      Internal Energy:             0.000000
##########      Receptor Energy: 0.0
########## Receptor Desolvation:             0.000000
########## Receptor Hydrophobic:             0.000000
##########         Total Energy: -66.95
##########        Ligand Charge:             2.000000
##########            Arbitrary:    +999.9990
##########     heavy atom count:   31
##########           pose count:    1
##########        Ligand Energy:             0.000000
# num electro vdwattr vdwrepu polsolv apolsol rdesolv rhydroe totalscore fullpol fullapo
#   1    5.00   -1.86    0.73   -3.40   -0.09    0.00    0.00       0.39   -7.48   -0.19
#   2    0.47   -1.57    0.61    0.13   -0.17    0.00    0.00      -0.53    0.29   -0.39
#   3   11.47   -1.17    0.18   -5.93    0.07    0.00    0.00       4.63  -15.31    0.19
#   4  -16.11   -0.04    0.00    7.83    0.21    0.00    0.00      -8.11   19.61    0.53
#   5    0.40   -0.89    0.12    0.08   -0.15    0.00    0.00      -0.44    0.21   -0.39
#   6    5.96   -1.70    0.55   -3.26   -0.09    0.00    0.00       1.45   -6.84   -0.19
#   7    0.36   -0.51    0.05   -0.15   -0.08    0.00    0.00      -0.33   -0.58   -0.33
#   8    3.25   -0.46    0.04   -1.42   -0.05    0.00    0.00       1.37   -6.58   -0.21
#   9    1.99   -0.23    0.01   -0.76   -0.03    0.00    0.00       0.98   -5.30   -0.21
#  10   -1.60   -0.17    0.00    0.52   -0.02    0.00    0.00      -1.27    5.25   -0.22
#  11    1.01   -0.09    0.00   -0.36   -0.01    0.00    0.00       0.55   -6.47   -0.19
#  12    5.79   -0.30    0.01   -3.02    0.15    0.00    0.00       2.64  -25.42    1.30
#  13   -3.91   -0.52    0.04    2.66   -0.13    0.00    0.00      -1.87   14.24   -0.72
#  14    0.89   -0.94    0.18   -0.94   -0.09    0.00    0.00      -0.91   -4.12   -0.40
#  15    0.21   -1.01    0.24    0.00   -0.10    0.00    0.00      -0.67   -0.02   -0.45
#  16    0.49   -1.22    0.21   -1.27   -0.14    0.00    0.00      -1.94   -4.21   -0.45
#  17   -0.18   -1.38    0.20    0.10   -0.10    0.00    0.00      -1.36    0.29   -0.30
#  18    0.03   -2.95    0.51   -1.17   -0.48    0.00    0.00      -4.07   -2.40   -0.99
#  19    0.75   -1.40    0.26   -1.50   -0.15    0.00    0.00      -2.05   -4.38   -0.45
#  20   -1.48   -1.13    0.25    1.66   -0.20    0.00    0.00      -0.90    5.93   -0.70
#  21    7.24   -0.83    0.06   -4.47    0.14    0.00    0.00       2.14  -16.00    0.50
#  22   -6.70   -0.01    0.00    1.82    0.06    0.00    0.00      -4.83   11.88    0.37
#  23   -6.68   -0.71    0.05    2.11   -0.11    0.00    0.00      -5.34    8.96   -0.48
#  24    5.45   -1.02    0.11   -1.00   -0.15    0.00    0.00       3.39   -3.04   -0.45
#  25    0.11   -0.87    0.04   -0.80   -0.13    0.00    0.00      -1.65   -2.52   -0.41
#  26    2.14   -0.72    0.03   -0.57   -0.07    0.00    0.00       0.81   -2.22   -0.26
#  27    1.33   -0.57    0.02   -0.51   -0.06    0.00    0.00       0.22   -2.38   -0.29
#  28    0.70   -0.91    0.10   -0.78   -0.14    0.00    0.00      -1.05   -2.56   -0.47
#  29    0.52   -2.56    1.24   -1.04   -0.21    0.00    0.00      -2.05   -2.35   -0.47
#  30    0.93   -3.06    2.17   -1.33   -0.22    0.00    0.00      -1.52   -2.79   -0.46
#  31    0.07   -1.42    0.26   -0.45   -0.12    0.00    0.00      -1.66   -1.11   -0.29
#  32    0.44   -4.50    2.45   -0.96   -0.48    0.00    0.00      -3.07   -1.87   -0.94
#  33    4.98   -0.60    0.04   -1.64   -0.08    0.00    0.00       2.71   -8.01   -0.40
#  34   -2.98   -0.66    0.34    0.89   -0.13    0.00    0.00      -2.53    1.96   -0.28
#  35   -2.40   -1.49    2.89    0.99   -0.11    0.00    0.00      -0.11    1.91   -0.22
#  36   -1.50   -0.28    0.04    0.85   -0.08    0.00    0.00      -0.97    2.84   -0.28
#  37   -5.70   -1.23    1.51    2.74   -0.13    0.00    0.00      -2.80    5.89   -0.28
#  38   -3.17   -0.33    0.09    2.16   -0.06    0.00    0.00      -1.31    8.07   -0.21
#  39   -2.83   -0.34    0.12    1.02   -0.05    0.00    0.00      -2.07    4.45   -0.22
#  40   -1.96   -0.21    0.02    1.06   -0.05    0.00    0.00      -1.14    5.43   -0.28
#  41   -2.53   -0.68    0.80    0.39   -0.10    0.00    0.00      -2.12    1.05   -0.28
#  42   -3.06   -1.02    1.41    1.56   -0.11    0.00    0.00      -1.20    3.41   -0.23
#  43   -3.35   -1.07    2.03    1.16   -0.13    0.00    0.00      -1.36    2.56   -0.28
#  44   -1.90   -0.07    0.00    0.35   -0.01    0.00    0.00      -1.64    5.57   -0.21
#  45   -2.97   -0.21    0.04    1.23   -0.05    0.00    0.00      -1.97    6.50   -0.28
#  46   -2.74   -0.35    0.10    1.35   -0.05    0.00    0.00      -1.69    5.65   -0.21
#  47   -1.31   -0.09    0.00    0.43   -0.02    0.00    0.00      -0.99    5.02   -0.28
#  48   -1.05   -0.03    0.00    0.13   -0.01    0.00    0.00      -0.96    3.58   -0.28
#  49   -1.64   -0.11    0.01    0.48   -0.04    0.00    0.00      -1.29    3.68   -0.28
#  50   -1.87   -0.08    0.00    0.45   -0.02    0.00    0.00      -1.51    5.92   -0.22
#  51   -0.24   -0.02    0.00    0.04   -0.01    0.00    0.00      -0.23    1.35   -0.28
#  52   -0.37   -0.03    0.00    0.06   -0.01    0.00    0.00      -0.35    1.65   -0.26
#  53   -0.32   -0.02    0.00    0.05   -0.01    0.00    0.00      -0.29    2.12   -0.28
#  54   -1.70    0.00    0.00    0.99    0.02    0.00    0.00      -0.70   18.66    0.45
#  55   -0.65   -0.11    0.01    0.89   -0.02    0.00    0.00       0.12    9.33   -0.22
#  56   -1.35   -0.21    0.02    1.06   -0.06    0.00    0.00      -0.55    4.57   -0.28
#  57   -1.15   -0.28    0.03    0.84   -0.07    0.00    0.00      -0.63    3.31   -0.28
#  58   -7.44   -0.39    0.15    2.34   -0.09    0.00    0.00      -5.43    7.16   -0.28
#  59   -4.51   -0.26    0.02    0.81   -0.07    0.00    0.00      -4.01    3.14   -0.27
#  60   -1.55   -0.08    0.00    0.46   -0.02    0.00    0.00      -1.18    6.31   -0.21
#  61   -0.29   -0.12    0.01    0.77   -0.04    0.00    0.00       0.32    5.16   -0.28
#  62   -1.23   -1.04    1.17    1.36   -0.13    0.00    0.00       0.14    3.02   -0.28
#  63   -1.33   -1.09    0.86    0.96   -0.16    0.00    0.00      -0.75    1.65   -0.28
#  64   -4.29   -0.12    0.01    1.03   -0.03    0.00    0.00      -3.39    8.89   -0.22

@<TRIPOS>MOLECULE
          T538874        17
   64    66     0     0     0



@<TRIPOS>ATOM
      1 C1         11.1488    -4.6169    88.8030 C.3        1          -0.1909
      2 C2         10.3570    -4.7170    87.4975 C.3        1          -0.0146
      3 N1          8.9428    -4.9732    87.8009 N.4        1          -0.3868
      4 H1          8.5762    -4.2172    88.3595 H          1           0.4223
      5 C3          8.1827    -5.0692    86.5476 C.3        1          -0.0164
      6 C4          8.3082    -3.7556    85.7732 C.3        1          -0.1896
      7 C5          8.8222    -6.2345    88.5444 C.3        1          -0.0169
      8 C6          7.3492    -6.5015    88.8605 C.3        1          -0.1530
      9 C7          7.2237    -7.8149    89.6348 C.3        1          -0.1299
     10 C8          5.7507    -8.0819    89.9508 C.3        1           0.1293
     11 C9          5.0620    -8.6670    88.7162 C.3        1          -0.1804
     12 N2          5.6540    -9.0333    91.0607 N.pl3      1          -0.6824
     13 C10         5.6107    -8.5716    92.3684 C.ar       1           0.3516
     14 C11         6.1332    -9.3477    93.4333 C.ar       1          -0.1354
     15 C12         6.7091   -10.6036    93.2006 C.ar       1          -0.0485
     16 C13         7.2026   -11.3243    94.2467 C.ar       1          -0.1044
     17 C14         7.1414   -10.8279    95.5476 C.ar       1           0.0430
     18 Cl1         7.7798   -11.7747    96.8551 Cl         1          -0.0046
     19 C15         6.5883    -9.6101    95.8083 C.ar       1          -0.1413
     20 C16         6.0693    -8.8390    94.7532 C.ar       1           0.1951
     21 N3          5.5226    -7.6416    94.9846 N.ar       1          -0.5113
     22 H2          5.4857    -7.3058    95.8938 H          1           0.4433
     23 C17         5.0306    -6.9027    94.0021 C.ar       1           0.3114
     24 C18         4.4404    -5.5906    94.3152 C.2        1          -0.1817
     25 C19         3.1311    -5.4939    94.6012 C.2        1          -0.0043
     26 C20         2.2930    -6.7049    94.6345 C.ar       1          -0.1317
     27 C21         1.6515    -7.1473    93.4740 C.ar       1          -0.1145
     28 C22         0.8690    -8.2819    93.5125 C.ar       1          -0.1180
     29 C23         0.7173    -8.9832    94.6962 C.ar       1          -0.0733
     30 C24         1.3481    -8.5523    95.8495 C.ar       1          -0.1024
     31 C25         2.1397    -7.4212    95.8258 C.ar       1          -0.0054
     32 Cl2         2.9367    -6.8861    97.2722 Cl         1          -0.0278
     33 C26         5.0623    -7.3396    92.6694 C.ar       1          -0.2551
     34 H3         12.1981    -4.4268    88.5778 H          1           0.1072
     35 H4         10.7529    -3.8001    89.4062 H          1           0.0839
     36 H5         11.0593    -5.5528    89.3547 H          1           0.0805
     37 H6         10.4465    -3.7813    86.9456 H          1           0.1303
     38 H7         10.7530    -5.5338    86.8941 H          1           0.1251
     39 H8          8.5787    -5.8861    85.9441 H          1           0.1348
     40 H9          7.1334    -5.2594    86.7727 H          1           0.1308
     41 H10         7.7443    -3.8268    84.8431 H          1           0.1099
     42 H11         7.9123    -2.9388    86.3765 H          1           0.0795
     43 H12         9.3576    -3.5655    85.5479 H          1           0.0813
     44 H13         9.2183    -7.0513    87.9409 H          1           0.1378
     45 H14         9.3862    -6.1634    89.4744 H          1           0.1321
     46 H15         6.9533    -5.6846    89.4639 H          1           0.0838
     47 H16         6.7852    -6.5725    87.9304 H          1           0.0924
     48 H17         7.6196    -8.6317    89.0313 H          1           0.1070
     49 H18         7.7877    -7.7439    90.5648 H          1           0.0893
     50 H19         5.2638    -7.1474    90.2298 H          1           0.1040
     51 H20         4.0127    -8.8571    88.9414 H          1           0.0725
     52 H21         5.1338    -7.9592    87.8905 H          1           0.0711
     53 H22         5.5489    -9.6014    88.4371 H          1           0.0870
     54 H23         5.6203    -9.9859    90.8813 H          1           0.4154
     55 H24         6.7615   -10.9988    92.1969 H          1           0.1504
     56 H25         7.6462   -12.2922    94.0654 H          1           0.1616
     57 H26         6.5481    -9.2389    96.8217 H          1           0.1635
     58 H27         5.0599    -4.7059    94.3151 H          1           0.1801
     59 H28         2.6931    -4.5283    94.8066 H          1           0.1651
     60 H29         1.7684    -6.6014    92.5494 H          1           0.1283
     61 H30         0.3728    -8.6243    92.6163 H          1           0.1381
     62 H31         0.1031    -9.8711    94.7197 H          1           0.1485
     63 H32         1.2244    -9.1042    96.7694 H          1           0.1528
     64 H33         4.6581    -6.7183    91.8839 H          1           0.1801
@<TRIPOS>BOND
     1    1    2 1
     2    1   34 1
     3    1   35 1
     4    1   36 1
     5    2    3 1
     6    2   37 1
     7    2   38 1
     8    3    4 1
     9    3    5 1
    10    3    7 1
    11    5    6 1
    12    5   39 1
    13    5   40 1
    14    6   41 1
    15    6   42 1
    16    6   43 1
    17    7    8 1
    18    7   44 1
    19    7   45 1
    20    8    9 1
    21    8   46 1
    22    8   47 1
    23    9   10 1
    24    9   48 1
    25    9   49 1
    26   10   11 1
    27   10   12 1
    28   10   50 1
    29   11   51 1
    30   11   52 1
    31   11   53 1
    32   12   13 1
    33   12   54 1
    34   13   33 ar
    35   13   14 ar
    36   14   20 ar
    37   14   15 ar
    38   15   16 ar
    39   15   55 1
    40   16   17 ar
    41   16   56 1
    42   17   18 1
    43   17   19 ar
    44   19   20 ar
    45   19   57 1
    46   20   21 ar
    47   21   22 1
    48   21   23 ar
    49   23   24 1
    50   23   33 ar
    51   24   25 2
    52   24   58 1
    53   25   26 1
    54   25   59 1
    55   26   31 ar
    56   26   27 ar
    57   27   28 ar
    58   27   60 1
    59   28   29 ar
    60   28   61 1
    61   29   30 ar
    62   29   62 1
    63   30   31 ar
    64   30   63 1
    65   31   32 1
    66   33   64 1
##########                 Name:              T539935
##########          Protonation:                   71
##########               SMILES:   c1ccc(cc1)c2ccc(cc2)C[NH2+]CCC[NH+]3CC[C@@H](CC3)c4c5c([nH]c4)ccc(c5)O
##########            Long Name:   y-1H-indol-3-yl)piperidin-1-ium-1-yl]propyl-[(4-phenylphenyl)methyl]ammonium
##########          FlexRecCode: 1
##########               Number:                   19
##########   Ligand Source File: /raidb/db2/rgc/tcams/tcams-0001963.db2.gz
##########           GlobalRank: 159
##########                 Rank:                    1
##########               Setnum:                  108
##########             Matchnum:                 1241
##########                Cloud:                    1
##########        Electrostatic:           -53.404476
##########        Van der Waals:           -27.502129
##########  Ligand Polar Desolv:            16.720848
########## Ligand Apolar Desolv:            -2.763422
##########      Internal Energy:             0.000000
##########      Receptor Energy: 0.0
########## Receptor Desolvation:             0.000000
########## Receptor Hydrophobic:             0.000000
##########         Total Energy: -66.95
##########        Ligand Charge:             2.000000
##########            Arbitrary:    +999.9990
##########     heavy atom count:   33
##########           pose count:    1
##########        Ligand Energy:             0.000000
# num electro vdwattr vdwrepu polsolv apolsol rdesolv rhydroe totalscore fullpol fullapo
#   1    9.50   -3.26    2.26   -3.19    0.71    0.00    0.00       6.02   -5.37    1.19
#   2   -1.33   -2.05    0.54   -0.04   -0.17    0.00    0.00      -3.04   -0.07   -0.31
#   3    0.98   -2.40    1.00   -1.22   -0.26    0.00    0.00      -1.89   -2.17   -0.46
#   4    0.74   -1.95    0.41   -1.03   -0.26    0.00    0.00      -2.10   -1.83   -0.47
#   5   -0.52   -1.47    0.18    0.23   -0.34    0.00    0.00      -1.91    0.54   -0.78
#   6    1.37   -2.05    0.54   -5.67    0.46    0.00    0.00      -5.35  -14.38    1.17
#   7   -0.17   -1.68    0.58    0.99   -0.30    0.00    0.00      -0.58    3.14   -0.94
#   8    1.59   -1.20    0.17   -1.62   -0.11    0.00    0.00      -1.17   -5.19   -0.35
#   9    0.25   -0.92    0.24   -0.26   -0.05    0.00    0.00      -0.75   -0.84   -0.17
#  10    2.31   -0.59    0.03   -1.73   -0.07    0.00    0.00      -0.05   -5.32   -0.21
#  11    0.26   -0.77    0.08    0.26   -0.16    0.00    0.00      -0.32    0.69   -0.42
#  12   13.98   -1.57    1.50   -5.00    0.12    0.00    0.00       9.05  -17.28    0.43
#  13  -22.85   -0.10    0.02    6.73    0.15    0.00    0.00     -16.04   24.79    0.56
#  14    0.36   -0.41    0.03   -0.41   -0.06    0.00    0.00      -0.49   -1.93   -0.28
#  15    3.73   -0.40    0.01   -2.40   -0.05    0.00    0.00       0.89  -10.40   -0.22
#  16    0.07   -0.35    0.01   -0.04   -0.08    0.00    0.00      -0.40   -0.22   -0.40
#  17    9.53   -0.63    0.04   -7.56    0.21    0.00    0.00       1.58  -26.67    0.73
#  18  -10.38   -0.02    0.00    4.87    0.11    0.00    0.00      -5.42   24.93    0.57
#  19   -8.72   -0.01    0.00    3.52    0.08    0.00    0.00      -5.14   25.01    0.57
#  20   -0.72   -0.92    0.25    1.21   -0.14    0.00    0.00      -0.31    3.74   -0.42
#  21    0.52   -0.91    0.20   -0.81   -0.09    0.00    0.00      -1.08   -3.48   -0.37
#  22    0.74   -1.37    0.65   -0.82   -0.13    0.00    0.00      -0.93   -2.87   -0.45
#  23    0.29   -0.81    0.09   -1.11   -0.12    0.00    0.00      -1.66   -3.99   -0.44
#  24   -0.03   -0.37    0.01   -0.37   -0.07    0.00    0.00      -0.83   -2.24   -0.41
#  25    0.18   -0.26    0.00   -0.43   -0.05    0.00    0.00      -0.56   -4.01   -0.44
#  26    0.16   -0.43    0.02   -0.52   -0.08    0.00    0.00      -0.86   -2.85   -0.45
#  27    0.10   -0.37    0.01   -0.13   -0.06    0.00    0.00      -0.45   -0.83   -0.41
#  28    0.10   -0.48    0.04   -0.37   -0.08    0.00    0.00      -0.79   -1.96   -0.44
#  29    0.10   -1.06    0.49   -0.38   -0.10    0.00    0.00      -0.95   -1.75   -0.47
#  30    0.08   -1.58    1.07   -0.49   -0.12    0.00    0.00      -1.03   -1.94   -0.47
#  31    0.11   -0.99    0.18   -0.44   -0.12    0.00    0.00      -1.25   -1.75   -0.47
#  32    0.10   -0.50    0.02   -0.42   -0.09    0.00    0.00      -0.89   -1.96   -0.44
#  33    0.59   -1.59    1.47    0.04   -0.12    0.00    0.00       0.39    0.13   -0.39
#  34    2.55   -0.81    0.22   -1.44   -0.06    0.00    0.00       0.47   -5.48   -0.21
#  35    0.76   -1.27    0.14   -0.81   -0.16    0.00    0.00      -1.35   -2.23   -0.44
#  36    1.47   -1.61    0.24   -0.80   -0.22    0.00    0.00      -0.92   -1.71   -0.47
#  37   -8.95   -0.05    0.00    3.17    0.68    0.00    0.00      -5.15    5.70    1.22
#  38   -0.91   -0.61    0.24    0.42   -0.16    0.00    0.00      -1.02    0.72   -0.28
#  39   -1.02   -0.45    0.08    0.87   -0.14    0.00    0.00      -0.65    1.74   -0.28
#  40   -0.65   -0.05    0.00    4.11    0.22    0.00    0.00       3.63   11.15    0.59
#  41   -0.02   -0.41    0.21    2.51   -0.06    0.00    0.00       2.24   11.88   -0.28
#  42   -1.93   -0.73    0.68    0.27   -0.08    0.00    0.00      -1.79    0.92   -0.28
#  43   -0.76   -0.20    0.03    1.08   -0.04    0.00    0.00       0.12    6.62   -0.22
#  44   -1.77   -0.20    0.01    0.18   -0.06    0.00    0.00      -1.84    0.85   -0.28
#  45   -3.76   -0.22    0.01    1.65   -0.06    0.00    0.00      -2.37    7.85   -0.28
#  46   -4.62   -0.33    0.05    1.70   -0.11    0.00    0.00      -3.32    4.28   -0.28
#  47   -3.02   -0.10    0.00    0.75   -0.01    0.00    0.00      -2.38    7.74   -0.15
#  48   -1.61   -0.12    0.01    1.04   -0.03    0.00    0.00      -0.72    9.67   -0.28
#  49   -2.30   -0.13    0.00    0.78   -0.03    0.00    0.00      -1.67    8.03   -0.28
#  50   -2.85   -0.17    0.01    1.35   -0.04    0.00    0.00      -1.70    7.40   -0.22
#  51   -1.32   -0.07    0.00    0.60   -0.02    0.00    0.00      -0.80    9.65   -0.28
#  52   -0.68   -0.18    0.04    1.33   -0.04    0.00    0.00       0.46    9.30   -0.28
#  53   -1.42   -0.30    0.06    2.78   -0.09    0.00    0.00       1.05    8.99   -0.28
#  54   -4.09   -0.79    1.25    3.09   -0.10    0.00    0.00      -0.63    8.81   -0.28
#  55   -2.54   -0.46    0.44    1.77   -0.07    0.00    0.00      -0.85    7.49   -0.28
#  56   -0.24   -0.28    0.09    0.55   -0.06    0.00    0.00       0.07    2.05   -0.22
#  57   -0.16   -0.03    0.00    0.07   -0.01    0.00    0.00      -0.13    2.04   -0.22
#  58   -0.18   -0.09    0.00    0.79   -0.03    0.00    0.00       0.50    7.57   -0.28
#  59   -0.15   -0.08    0.00    0.27   -0.02    0.00    0.00       0.02    2.64   -0.22
#  60   -0.10   -0.26    0.16    0.28   -0.05    0.00    0.00       0.02    1.56   -0.28
#  61   -0.12   -0.52    0.50    0.31   -0.08    0.00    0.00       0.10    1.13   -0.28
#  62   -0.15   -0.36    0.20    0.38   -0.07    0.00    0.00       0.00    1.54   -0.28
#  63   -0.16   -0.11    0.00    0.28   -0.02    0.00    0.00       0.00    2.62   -0.22
#  64   -4.71   -0.41    0.29    2.35   -0.05    0.00    0.00      -2.54   10.16   -0.21
#  65   -6.06   -1.08    1.80    1.61   -0.11    0.00    0.00      -3.84    4.20   -0.28
#  66   -1.88   -0.48    0.38    0.32   -0.06    0.00    0.00      -1.72    1.49   -0.28
#  67   -0.98   -0.11    0.01    0.88   -0.02    0.00    0.00      -0.22    7.75   -0.21
#  68   -2.11   -0.41    0.11    0.82   -0.09    0.00    0.00      -1.69    2.52   -0.28

@<TRIPOS>MOLECULE
          T539935        71
   68    72     0     0     0



@<TRIPOS>ATOM
      1 O1          9.8296    -9.4371    99.6877 O.3        1          -0.4960
      2 C1          9.1131   -10.0413    98.7023 C.ar       1           0.0978
      3 C2          8.9225   -11.4206    98.7296 C.ar       1          -0.1138
      4 C3          8.1995   -12.0483    97.7403 C.ar       1          -0.1058
      5 C4          7.6514   -11.3040    96.7007 C.ar       1           0.0879
      6 N1          6.8979   -11.6348    95.5942 N.pl3      1          -0.5874
      7 C5          6.6100   -10.5077    94.8743 C.2        1           0.0677
      8 C6          7.1510    -9.4333    95.4703 C.2        1          -0.1898
      9 C7          7.0643    -8.0060    94.9944 C.3        1          -0.0157
     10 C8          5.8211    -7.3415    95.5928 C.3        1          -0.1412
     11 C9          5.6956    -5.9188    95.0435 C.3        1          -0.0091
     12 N2          5.5724    -5.9640    93.5814 N.4        1          -0.3791
     13 H1          5.4363    -5.0290    93.2274 H          1           0.4283
     14 C10         4.4201    -6.7979    93.2141 C.3        1          -0.0171
     15 C11         3.1464    -6.2009    93.8158 C.3        1          -0.1841
     16 C12         1.9461    -7.0693    93.4333 C.3        1          -0.0055
     17 N3          0.7231    -6.4962    94.0109 N.4        1          -0.5099
     18 H2          0.8087    -6.4645    95.0158 H          1           0.4307
     19 H3          0.5890    -5.5616    93.6551 H          1           0.4300
     20 C13        -0.4292    -7.3300    93.6437 C.3        1           0.0505
     21 C14        -0.5570    -7.3775    92.1429 C.ar       1          -0.1885
     22 C15        -1.3200    -6.4290    91.4861 C.ar       1          -0.0825
     23 C16        -1.4405    -6.4678    90.1117 C.ar       1          -0.1157
     24 C17        -0.7919    -7.4647    89.3859 C.ar       1           0.0202
     25 C18        -0.0247    -8.4177    90.0527 C.ar       1          -0.1157
     26 C19         0.0936    -8.3661    91.4269 C.ar       1          -0.0827
     27 C20        -0.9173    -7.5116    87.9079 C.ar       1          -0.0870
     28 C21        -1.9509    -8.2370    87.3172 C.ar       1          -0.0980
     29 C22        -2.0639    -8.2770    85.9422 C.ar       1          -0.1170
     30 C23        -1.1540    -7.5991    85.1510 C.ar       1          -0.0949
     31 C24        -0.1266    -6.8780    85.7322 C.ar       1          -0.1171
     32 C25        -0.0077    -6.8263    87.1064 C.ar       1          -0.0980
     33 C26         6.7918    -6.5345    92.9963 C.3        1          -0.0162
     34 C27         6.9594    -7.9808    93.4669 C.3        1          -0.1395
     35 C28         7.8422    -9.9111    96.6703 C.ar       1          -0.0840
     36 C29         8.5731    -9.2843    97.6822 C.ar       1          -0.1108
     37 H4          9.9055    -8.4782    99.5873 H          1           0.3950
     38 H5          9.3461   -12.0034    99.5342 H          1           0.1403
     39 H6          8.0581   -13.1185    97.7711 H          1           0.1313
     40 H7          6.6146   -12.5327    95.3611 H          1           0.4225
     41 H8          6.0331   -10.4857    93.9617 H          1           0.1601
     42 H9          7.9559    -7.4626    95.3076 H          1           0.0983
     43 H10         4.9352    -7.9158    95.3216 H          1           0.0849
     44 H11         5.9142    -7.3056    96.6782 H          1           0.1184
     45 H12         4.8116    -5.4427    95.4675 H          1           0.1353
     46 H13         6.5817    -5.3453    95.3154 H          1           0.1387
     47 H14         4.3278    -6.8321    92.1287 H          1           0.1446
     48 H15         4.5650    -7.8074    93.5986 H          1           0.1420
     49 H16         3.2388    -6.1666    94.9014 H          1           0.1120
     50 H17         3.0015    -5.1913    93.4315 H          1           0.1110
     51 H18         1.8538    -7.1036    92.3478 H          1           0.1415
     52 H19         2.0910    -8.0790    93.8177 H          1           0.1436
     53 H20        -0.2843    -8.3397    94.0283 H          1           0.1396
     54 H21        -1.3367    -6.9048    94.0725 H          1           0.1403
     55 H22        -1.8226    -5.6569    92.0496 H          1           0.1326
     56 H23        -2.0367    -5.7269    89.5997 H          1           0.1401
     57 H24         0.4800    -9.1929    89.4951 H          1           0.1399
     58 H25         0.6919    -9.1014    91.9444 H          1           0.1321
     59 H26        -2.6615    -8.7672    87.9340 H          1           0.1264
     60 H27        -2.8639    -8.8387    85.4832 H          1           0.1326
     61 H28        -1.2458    -7.6333    84.0755 H          1           0.1326
     62 H29         0.5814    -6.3510    85.1097 H          1           0.1325
     63 H30         0.7921    -6.2593    87.5592 H          1           0.1263
     64 H31         6.7169    -6.5130    91.9091 H          1           0.1281
     65 H32         7.6545    -5.9479    93.3120 H          1           0.1395
     66 H33         7.8662    -8.4021    93.0328 H          1           0.1173
     67 H34         6.0972    -8.5684    93.1515 H          1           0.0822
     68 H35         8.7179    -8.2141    97.6645 H          1           0.1272
@<TRIPOS>BOND
     1    1    2 1
     2    1   37 1
     3    2   36 ar
     4    2    3 ar
     5    3    4 ar
     6    3   38 1
     7    4    5 ar
     8    4   39 1
     9    5   35 ar
    10    5    6 1
    11    6    7 1
    12    6   40 1
    13    7    8 2
    14    7   41 1
    15    8    9 1
    16    8   35 1
    17    9   34 1
    18    9   10 1
    19    9   42 1
    20   10   11 1
    21   10   43 1
    22   10   44 1
    23   11   12 1
    24   11   45 1
    25   11   46 1
    26   12   13 1
    27   12   14 1
    28   12   33 1
    29   14   15 1
    30   14   47 1
    31   14   48 1
    32   15   16 1
    33   15   49 1
    34   15   50 1
    35   16   17 1
    36   16   51 1
    37   16   52 1
    38   17   18 1
    39   17   19 1
    40   17   20 1
    41   20   21 1
    42   20   53 1
    43   20   54 1
    44   21   26 ar
    45   21   22 ar
    46   22   23 ar
    47   22   55 1
    48   23   24 ar
    49   23   56 1
    50   24   25 ar
    51   24   27 1
    52   25   26 ar
    53   25   57 1
    54   26   58 1
    55   27   32 ar
    56   27   28 ar
    57   28   29 ar
    58   28   59 1
    59   29   30 ar
    60   29   60 1
    61   30   31 ar
    62   30   61 1
    63   31   32 ar
    64   31   62 1
    65   32   63 1
    66   33   34 1
    67   33   64 1
    68   33   65 1
    69   34   66 1
    70   34   67 1
    71   35   36 ar
    72   36   68 1
##########                 Name:              T533359
##########          Protonation:                   99
##########               SMILES:   )c3ccc4c(=O)cc(n(c4n3)CC(=O)N(C)Cc5ccc(cc5)c6ccc(cc6)C(F)(F)F)CCc7cccc(c7F)F
##########            Long Name:   idin-1-yl]-N-methyl-N-[[4-[4-(trifluoromethyl)phenyl]phenyl]methyl]acetamide
##########          FlexRecCode: 1
##########               Number:                  200
##########   Ligand Source File: /raidb/db2/rgc/tcams/tcams-0001344.db2.gz
##########           GlobalRank: 160
##########                 Rank:                    1
##########               Setnum:                  206
##########             Matchnum:                 4091
##########                Cloud:                    1
##########        Electrostatic:           -33.894123
##########        Van der Waals:           -33.837288
##########  Ligand Polar Desolv:             6.605884
########## Ligand Apolar Desolv:            -5.814953
##########      Internal Energy:             0.000000
##########      Receptor Energy: 0.0
########## Receptor Desolvation:             0.000000
########## Receptor Hydrophobic:             0.000000
##########         Total Energy: -66.94
##########        Ligand Charge:             1.000000
##########            Arbitrary:    +999.9990
##########     heavy atom count:   56
##########           pose count:    1
##########        Ligand Energy:             0.000000
# num electro vdwattr vdwrepu polsolv apolsol rdesolv rhydroe totalscore fullpol fullapo
#   1    3.93   -0.62    0.04   -1.72   -0.05    0.00    0.00       1.58   -5.37   -0.15
#   2   -0.53   -0.79    0.07    0.64   -0.14    0.00    0.00      -0.74    1.71   -0.37
#   3    3.70   -1.08    0.17   -1.74   -0.12    0.00    0.00       0.92   -3.79   -0.27
#   4    2.71   -1.12    0.18   -1.83   -0.14    0.00    0.00      -0.20   -3.78   -0.29
#   5    0.14   -0.63    0.05   -0.05   -0.12    0.00    0.00      -0.61   -0.16   -0.39
#   6    9.02   -0.64    0.02   -3.35    0.13    0.00    0.00       5.18  -11.34    0.43
#   7  -12.75   -0.01    0.00    2.89    0.10    0.00    0.00      -9.76   15.42    0.56
#   8   -0.77   -0.39    0.01    0.29   -0.06    0.00    0.00      -0.91    1.31   -0.28
#   9    2.85   -0.58    0.04   -0.39   -0.07    0.00    0.00       1.84   -2.00   -0.34
#  10    0.85   -0.53    0.05   -0.33   -0.07    0.00    0.00      -0.03   -2.02   -0.45
#  11    0.57   -0.49    0.05   -0.25   -0.07    0.00    0.00      -0.19   -1.59   -0.46
#  12    0.17   -0.64    0.07   -0.28   -0.09    0.00    0.00      -0.76   -1.30   -0.41
#  13    2.31   -1.38    0.44   -0.51   -0.12    0.00    0.00       0.73   -1.87   -0.44
#  14    2.92   -1.27    0.56   -0.54   -0.10    0.00    0.00       1.57   -2.07   -0.40
#  15   -2.36   -1.03    0.50    0.36   -0.14    0.00    0.00      -2.67    1.96   -0.74
#  16    1.46   -0.84    0.30   -0.27   -0.08    0.00    0.00       0.58   -1.45   -0.44
#  17   -0.11   -0.85    0.27   -0.03   -0.09    0.00    0.00      -0.81   -0.14   -0.45
#  18    0.82   -0.86    0.39   -0.05   -0.07    0.00    0.00       0.23   -0.33   -0.41
#  19    0.18   -0.67    0.12   -0.19   -0.05    0.00    0.00      -0.61   -1.08   -0.32
#  20   -2.85   -2.38    3.08    0.77    0.09    0.00    0.00      -1.29    3.61    0.44
#  21   -0.01   -0.34    0.02   -0.08   -0.06    0.00    0.00      -0.48   -0.64   -0.45
#  22   -0.32   -0.31    0.01    0.15   -0.08    0.00    0.00      -0.54    1.27   -0.63
#  23    0.08   -0.17    0.00   -0.07   -0.02    0.00    0.00      -0.17   -0.65   -0.20
#  24   -0.08   -0.51    0.12   -0.14   -0.05    0.00    0.00      -0.66   -0.66   -0.22
#  25   -0.02   -0.70    0.10   -0.17   -0.07    0.00    0.00      -0.86   -0.81   -0.36
#  26   -0.02   -0.38    0.03   -0.12   -0.06    0.00    0.00      -0.55   -0.88   -0.45
#  27    0.01   -0.29    0.01   -0.10   -0.05    0.00    0.00      -0.43   -0.89   -0.47
#  28    0.08   -0.59    0.03   -0.24   -0.11    0.00    0.00      -0.84   -1.01   -0.47
#  29   -0.09   -1.43    0.50    0.01   -0.12    0.00    0.00      -1.13    0.03   -0.34
#  30    0.34   -1.66    0.79   -0.24   -0.22    0.00    0.00      -0.99   -0.51   -0.47
#  31   -0.16   -1.35    0.49    0.09   -0.10    0.00    0.00      -1.03    0.31   -0.34
#  32    1.66   -1.16    0.51   -0.37   -0.17    0.00    0.00       0.47   -0.98   -0.44
#  33    2.38   -0.50    0.05   -0.35    0.13    0.00    0.00       1.72   -2.33    0.89
#  34   -0.73   -0.36    0.02    0.14   -0.06    0.00    0.00      -0.98    0.71   -0.28
#  35   -4.33   -0.34    0.01    0.40   -0.08    0.00    0.00      -4.34    3.07   -0.58
#  36    2.20   -0.18    0.00   -0.04    0.03    0.00    0.00       2.01   -0.52    0.37
#  37    9.99   -0.62    0.02   -1.43    0.50    0.00    0.00       8.47   -5.55    1.95
#  38   -1.86   -0.97    0.16    0.29   -0.21    0.00    0.00      -2.60    0.75   -0.55
#  39   -2.53   -0.86    0.28    0.34   -0.12    0.00    0.00      -2.89    1.24   -0.42
#  40    1.03   -0.92    0.20   -0.21   -0.09    0.00    0.00       0.01   -0.89   -0.38
#  41    0.34   -1.15    0.68   -0.14   -0.08    0.00    0.00      -0.35   -0.77   -0.45
#  42    0.30   -0.45    0.03   -0.15   -0.07    0.00    0.00      -0.34   -0.97   -0.44
#  43    0.17   -0.61    0.05   -0.11   -0.08    0.00    0.00      -0.58   -0.58   -0.41
#  44    0.71   -1.42    0.54   -0.35   -0.12    0.00    0.00      -0.64   -1.29   -0.44
#  45    1.69   -1.04    0.16   -0.35   -0.13    0.00    0.00       0.32   -1.19   -0.45
#  46    0.01   -0.69    0.10   -0.03   -0.08    0.00    0.00      -0.69   -0.16   -0.41
#  47    0.27   -0.89    0.15   -0.32   -0.10    0.00    0.00      -0.89   -1.35   -0.44
#  48    0.10   -0.84    0.18   -0.18   -0.10    0.00    0.00      -0.84   -0.81   -0.44
#  49    0.22   -0.58    0.03   -0.46   -0.08    0.00    0.00      -0.87   -2.09   -0.38
#  50    0.08   -0.60    0.04   -0.19   -0.10    0.00    0.00      -0.76   -0.85   -0.44
#  51    0.19   -0.59    0.05   -0.27   -0.08    0.00    0.00      -0.70   -1.40   -0.44
#  52   -0.51   -0.42    0.02    1.23   -0.02    0.00    0.00       0.30    4.36   -0.07
#  53    0.21   -0.43    0.03   -0.50   -0.14    0.00    0.00      -0.83   -1.67   -0.48
#  54    0.09   -0.67    0.05   -0.64   -0.20    0.00    0.00      -1.37   -1.42   -0.45
#  55    0.19   -0.21    0.01   -0.24   -0.09    0.00    0.00      -0.34   -1.27   -0.45
#  56   -2.68   -1.02    0.60    0.19   -0.32    0.00    0.00      -3.24    1.18   -2.03
#  57    5.92   -1.22    0.60   -0.61    0.30    0.00    0.00       4.99   -3.15    1.53
#  58   -1.96   -0.22    0.01    0.59   -0.06    0.00    0.00      -1.64    2.36   -0.23
#  59   -2.02   -0.26    0.05    0.34   -0.06    0.00    0.00      -1.96    1.50   -0.28
#  60   -1.49   -0.11    0.00    0.31   -0.02    0.00    0.00      -1.31    2.96   -0.21
#  61   -3.84   -0.52    0.20    1.81   -0.10    0.00    0.00      -2.45    5.30   -0.28
#  62   -3.48   -0.55    0.14    0.97   -0.14    0.00    0.00      -3.06    1.95   -0.28
#  63   -3.00   -0.37    0.18    0.62   -0.08    0.00    0.00      -2.66    2.02   -0.27
#  64   -2.18   -0.52    0.18    0.96   -0.12    0.00    0.00      -1.67    2.33   -0.28
#  65   -1.63   -0.57    0.26    0.82   -0.12    0.00    0.00      -1.23    1.95   -0.28
#  66   -1.89   -0.17    0.01    0.75   -0.05    0.00    0.00      -1.35    4.37   -0.28
#  67   -0.57   -0.30    0.15    0.82   -0.04    0.00    0.00       0.06    4.47   -0.21
#  68   -1.76   -0.08    0.00    0.39   -0.02    0.00    0.00      -1.47    5.15   -0.22
#  69   -3.49   -0.17    0.01    0.98   -0.04    0.00    0.00      -2.70    5.57   -0.22
#  70   -0.49   -0.10    0.01    0.49   -0.03    0.00    0.00      -0.13    4.74   -0.28
#  71   -0.49   -0.09    0.01    0.12   -0.02    0.00    0.00      -0.48    1.29   -0.26
#  72   -4.05   -0.95    2.03    0.75   -0.07    0.00    0.00      -2.29    2.39   -0.21
#  73   -5.67   -0.51    0.62    1.13   -0.05    0.00    0.00      -4.48    5.10   -0.24
#  74   -0.86   -0.13    0.01    0.30   -0.02    0.00    0.00      -0.71    2.56   -0.21
#  75   -0.96   -0.18    0.02    0.04   -0.05    0.00    0.00      -1.13    0.23   -0.27
#  76    0.06   -0.05    0.00    0.02   -0.01    0.00    0.00       0.02    0.49   -0.28
#  77   -0.06   -0.03    0.00    0.03   -0.01    0.00    0.00      -0.06    1.11   -0.28
#  78   -0.13   -0.05    0.00    0.03   -0.01    0.00    0.00      -0.16    0.59   -0.21
#  79    0.01   -0.23    0.05    0.23   -0.05    0.00    0.00       0.02    1.05   -0.23
#  80    0.17   -0.27    0.20    0.22   -0.04    0.00    0.00       0.28    1.41   -0.28
#  81    0.07   -0.05    0.00    0.14   -0.02    0.00    0.00       0.14    2.40   -0.28
#  82    0.00   -0.03    0.00    0.07   -0.01    0.00    0.00       0.03    2.19   -0.28
#  83   -0.09   -0.13    0.01    0.15   -0.03    0.00    0.00      -0.10    1.35   -0.28
#  84   -1.99   -0.20    0.03    0.36   -0.04    0.00    0.00      -1.84    1.87   -0.22
#  85   -1.01   -0.11    0.00    0.18   -0.02    0.00    0.00      -0.95    1.73   -0.17
#  86   -2.40   -0.40    0.07    0.32   -0.10    0.00    0.00      -2.51    0.86   -0.28
#  87   -2.28   -0.46    0.30    0.58   -0.08    0.00    0.00      -1.94    1.94   -0.28
#  88   -1.79   -0.32    0.06    0.53   -0.07    0.00    0.00      -1.58    1.67   -0.21
#  89   -2.57   -0.50    0.25    0.47   -0.09    0.00    0.00      -2.43    1.51   -0.28
#  90   -0.87   -0.34    0.25    0.01   -0.05    0.00    0.00      -1.00    0.03   -0.25
#  91   -0.42   -0.61    1.37   -0.02   -0.05    0.00    0.00       0.27   -0.11   -0.27
#  92   -0.28   -0.06    0.00    0.05   -0.01    0.00    0.00      -0.30    0.90   -0.22
#  93   -2.35   -0.74    1.03    0.93   -0.07    0.00    0.00      -1.19    3.03   -0.22
#  94   -3.78   -0.30    0.05    0.74   -0.08    0.00    0.00      -3.38    2.72   -0.28
#  95   -0.92   -0.19    0.02    0.31   -0.05    0.00    0.00      -0.83    1.49   -0.22
#  96   -0.23   -0.22    0.09    0.23   -0.04    0.00    0.00      -0.18    1.52   -0.27
#  97   -0.15   -0.14    0.01    0.36   -0.04    0.00    0.00       0.04    2.35   -0.27
#  98   -0.24   -0.10    0.00    0.34   -0.02    0.00    0.00      -0.02    3.19   -0.22

@<TRIPOS>MOLECULE
          T533359        99
   98   104     0     0     0



@<TRIPOS>ATOM
      1 C1          1.2297    -5.0342    93.7999 C.3        1          -0.1831
      2 C2          2.2052    -5.0319    94.9785 C.3        1           0.0212
      3 C3          1.5546    -5.7152    96.1997 C.3        1          -0.1375
      4 C4          2.7334    -6.5045    96.8278 C.3        1          -0.1431
      5 C5          3.5185    -6.9490    95.5686 C.3        1          -0.0097
      6 N1          3.4101    -5.8086    94.6340 N.4        1          -0.3871
      7 H1          4.2272    -5.2224    94.7172 H          1           0.4242
      8 C6          3.2999    -6.3069    93.2565 C.3        1           0.0382
      9 C7          4.5334    -7.0999    92.9089 C.ar       1          -0.1477
     10 C8          4.4111    -8.3134    92.2560 C.ar       1          -0.0960
     11 C9          5.5370    -9.0439    91.9352 C.ar       1          -0.0705
     12 C10         6.7996    -8.5569    92.2705 C.ar       1          -0.0120
     13 C11         6.9166    -7.3333    92.9285 C.ar       1          -0.0917
     14 C12         5.7838    -6.6089    93.2391 C.ar       1          -0.0952
     15 C13         8.0129    -9.3372    91.9291 C.ar       1           0.2190
     16 C14         8.1653   -10.6266    92.4467 C.ar       1          -0.2000
     17 C15         9.2853   -11.3503    92.1330 C.ar       1           0.0206
     18 C16        10.2398   -10.7609    91.2985 C.ar       1          -0.2308
     19 C17        11.4697   -11.4713    90.9137 C.2        1           0.4219
     20 O1         11.6963   -12.6018    91.3126 O.2        1          -0.4808
     21 C18        12.3808   -10.7982    90.0644 C.2        1          -0.2938
     22 C19        12.1064    -9.5490    89.6372 C.2        1           0.2167
     23 C20        13.0960    -8.8594    88.7338 C.3        1          -0.0934
     24 C21        14.1055    -8.0828    89.5817 C.3        1          -0.0779
     25 C22        15.0951    -7.3934    88.6782 C.ar       1          -0.0942
     26 C23        16.2547    -8.0436    88.2990 C.ar       1          -0.0937
     27 C24        17.1631    -7.4127    87.4702 C.ar       1          -0.0912
     28 C25        16.9141    -6.1299    87.0183 C.ar       1          -0.1250
     29 C26        15.7544    -5.4765    87.3960 C.ar       1           0.0732
     30 F1         15.5101    -4.2232    86.9545 F          1          -0.1262
     31 C27        14.8405    -6.1116    88.2235 C.ar       1           0.0655
     32 F2         13.7050    -5.4775    88.5894 F          1          -0.1316
     33 N2         10.9753    -8.8888    89.9880 N.pl3      1          -0.4665
     34 C28        10.7540    -7.5331    89.4788 C.3        1           0.0761
     35 C29        10.0136    -7.6033    88.1682 C.2        1           0.5026
     36 O2          9.7015    -8.6797    87.7048 O.2        1          -0.5153
     37 N3          9.6982    -6.4697    87.5108 N.am       1          -0.6055
     38 C30        10.0752    -5.1693    88.0705 C.3        1           0.0689
     39 C31         8.9785    -6.5378    86.2366 C.3        1           0.1515
     40 C32         7.4943    -6.5019    86.4955 C.ar       1          -0.0959
     41 C33         6.6582    -7.3847    85.8360 C.ar       1          -0.0893
     42 C34         5.2982    -7.3562    86.0693 C.ar       1          -0.1035
     43 C35         4.7678    -6.4358    86.9712 C.ar       1          -0.0545
     44 C36         5.6146    -5.5489    87.6327 C.ar       1          -0.1066
     45 C37         6.9738    -5.5900    87.3961 C.ar       1          -0.1033
     46 C38         3.3063    -6.3999    87.2260 C.ar       1          -0.0066
     47 C39         2.8226    -5.9938    88.4676 C.ar       1          -0.1143
     48 C40         1.4623    -5.9619    88.6987 C.ar       1          -0.0643
     49 C41         0.5797    -6.3328    87.7003 C.ar       1          -0.1849
     50 C42         1.0545    -6.7374    86.4657 C.ar       1          -0.0658
     51 C43         2.4125    -6.7670    86.2217 C.ar       1          -0.1160
     52 C44        -0.9045    -6.2964    87.9587 C.3        1           0.5078
     53 F3         -1.1395    -5.8591    89.2666 F          1          -0.1803
     54 F4         -1.5136    -5.4176    87.0566 F          1          -0.1743
     55 F5         -1.4382    -7.5790    87.7929 F          1          -0.1739
     56 C45        10.0302    -9.4583    90.8081 C.ar       1           0.4061
     57 N4          8.9277    -8.7998    91.1354 N.ar       1          -0.5137
     58 H2          0.3420    -4.4585    94.0619 H          1           0.0830
     59 H3          1.7097    -4.5861    92.9299 H          1           0.1041
     60 H4          0.9422    -6.0598    93.5681 H          1           0.0832
     61 H5          2.4828    -4.0077    95.2278 H          1           0.1389
     62 H6          1.1726    -4.9716    96.8993 H          1           0.1126
     63 H7          0.7614    -6.3931    95.8848 H          1           0.1003
     64 H8          3.3428    -5.8586    97.4600 H          1           0.0982
     65 H9          2.3717    -7.3670    97.3872 H          1           0.1168
     66 H10         4.5626    -7.1366    95.8189 H          1           0.1327
     67 H11         3.0656    -7.8401    95.1339 H          1           0.1301
     68 H12         2.4210    -6.9461    93.1706 H          1           0.1376
     69 H13         3.2047    -5.4643    92.5717 H          1           0.1398
     70 H14         3.4325    -8.6898    91.9971 H          1           0.1324
     71 H15         5.4403    -9.9913    91.4258 H          1           0.1417
     72 H16         7.8920    -6.9513    93.1910 H          1           0.1424
     73 H17         5.8735    -5.6587    93.7446 H          1           0.1344
     74 H18         7.4064   -11.0486    93.0888 H          1           0.1468
     75 H19         9.4273   -12.3484    92.5201 H          1           0.1574
     76 H20        13.2954   -11.2848    89.7593 H          1           0.1604
     77 H21        13.6209    -9.6035    88.1347 H          1           0.1124
     78 H22        12.5678    -8.1699    88.0755 H          1           0.0835
     79 H23        13.5808    -7.3387    90.1807 H          1           0.0803
     80 H24        14.6338    -8.7725    90.2400 H          1           0.1000
     81 H25        16.4513    -9.0454    88.6513 H          1           0.1451
     82 H26        18.0687    -7.9221    87.1753 H          1           0.1458
     83 H27        17.6249    -5.6379    86.3709 H          1           0.1493
     84 H28        10.1643    -6.9663    90.1993 H          1           0.1298
     85 H29        11.7145    -7.0405    89.3277 H          1           0.1243
     86 H30         9.7384    -4.3755    87.4039 H          1           0.0691
     87 H31         9.6088    -5.0455    89.0479 H          1           0.0788
     88 H32        11.1590    -5.1197    88.1761 H          1           0.0704
     89 H33         9.2595    -5.6880    85.6148 H          1           0.0932
     90 H34         9.2354    -7.4645    85.7234 H          1           0.0966
     91 H35         7.0703    -8.0973    85.1370 H          1           0.1303
     92 H36         4.6462    -8.0456    85.5535 H          1           0.1251
     93 H37         5.2089    -4.8333    88.3325 H          1           0.1272
     94 H38         7.6317    -4.9062    87.9118 H          1           0.1261
     95 H39         3.5108    -5.7047    89.2481 H          1           0.1371
     96 H40         1.0862    -5.6472    89.6610 H          1           0.1390
     97 H41         0.3609    -7.0262    85.6898 H          1           0.1390
     98 H42         2.7820    -7.0788    85.2560 H          1           0.1377
@<TRIPOS>BOND
     1    1    2 1
     2    1   58 1
     3    1   59 1
     4    1   60 1
     5    2    6 1
     6    2    3 1
     7    2   61 1
     8    3    4 1
     9    3   62 1
    10    3   63 1
    11    4    5 1
    12    4   64 1
    13    4   65 1
    14    5    6 1
    15    5   66 1
    16    5   67 1
    17    6    7 1
    18    6    8 1
    19    8    9 1
    20    8   68 1
    21    8   69 1
    22    9   14 ar
    23    9   10 ar
    24   10   11 ar
    25   10   70 1
    26   11   12 ar
    27   11   71 1
    28   12   13 ar
    29   12   15 1
    30   13   14 ar
    31   13   72 1
    32   14   73 1
    33   15   57 ar
    34   15   16 ar
    35   16   17 ar
    36   16   74 1
    37   17   18 ar
    38   17   75 1
    39   18   56 ar
    40   18   19 1
    41   19   20 2
    42   19   21 1
    43   21   22 2
    44   21   76 1
    45   22   23 1
    46   22   33 1
    47   23   24 1
    48   23   77 1
    49   23   78 1
    50   24   25 1
    51   24   79 1
    52   24   80 1
    53   25   31 ar
    54   25   26 ar
    55   26   27 ar
    56   26   81 1
    57   27   28 ar
    58   27   82 1
    59   28   29 ar
    60   28   83 1
    61   29   30 1
    62   29   31 ar
    63   31   32 1
    64   33   34 1
    65   33   56 1
    66   34   35 1
    67   34   84 1
    68   34   85 1
    69   35   36 2
    70   35   37 am
    71   37   38 1
    72   37   39 1
    73   38   86 1
    74   38   87 1
    75   38   88 1
    76   39   40 1
    77   39   89 1
    78   39   90 1
    79   40   45 ar
    80   40   41 ar
    81   41   42 ar
    82   41   91 1
    83   42   43 ar
    84   42   92 1
    85   43   44 ar
    86   43   46 1
    87   44   45 ar
    88   44   93 1
    89   45   94 1
    90   46   51 ar
    91   46   47 ar
    92   47   48 ar
    93   47   95 1
    94   48   49 ar
    95   48   96 1
    96   49   50 ar
    97   49   52 1
    98   50   51 ar
    99   50   97 1
   100   51   98 1
   101   52   53 1
   102   52   54 1
   103   52   55 1
   104   56   57 ar
##########                 Name:              T527514
##########          Protonation:                   71
##########               SMILES:   COc1ccc2c(n1)c(c(cn2)F)CCN3C[C@H]([C@H](C3)O)C[NH2+]Cc4ccc5c(c4)ccc(=O)o5
##########            Long Name:   )ethyl]-4-hydroxy-pyrrolidin-3-yl]methyl-[(2-oxochromen-6-yl)methyl]ammonium
##########          FlexRecCode: 1
##########               Number:                  101
##########   Ligand Source File: /raidb/db2/rgc/tcams/tcams-0000311.db2.gz
##########           GlobalRank: 162
##########                 Rank:                    1
##########               Setnum:                  407
##########             Matchnum:                 3127
##########                Cloud:                    1
##########        Electrostatic:           -41.555283
##########        Van der Waals:           -32.662560
##########  Ligand Polar Desolv:             9.063265
########## Ligand Apolar Desolv:            -1.753332
##########      Internal Energy:             0.000000
##########      Receptor Energy: 0.0
########## Receptor Desolvation:             0.000000
########## Receptor Hydrophobic:             0.000000
##########         Total Energy: -66.91
##########        Ligand Charge:             1.000000
##########            Arbitrary:    +999.9990
##########     heavy atom count:   35
##########           pose count:    1
##########        Ligand Energy:             0.000000
# num electro vdwattr vdwrepu polsolv apolsol rdesolv rhydroe totalscore fullpol fullapo
#   1   -0.11   -0.88    0.36    0.09    0.01    0.00    0.00      -0.53    0.39    0.03
#   2    1.23   -1.26    0.27   -0.87    0.28    0.00    0.00      -0.35   -2.76    0.90
#   3   -1.96   -1.32    0.17    0.93   -0.24    0.00    0.00      -2.43    2.57   -0.66
#   4    1.38   -1.64    0.27   -0.64   -0.22    0.00    0.00      -0.85   -1.33   -0.46
#   5    0.01   -1.60    0.15   -0.09   -0.27    0.00    0.00      -1.80   -0.16   -0.48
#   6   -0.33   -1.58    0.32   -0.01   -0.36    0.00    0.00      -1.96   -0.02   -0.73
#   7    4.93   -2.45    1.13   -1.33    1.08    0.00    0.00       3.36   -2.45    1.99
#   8   -1.86   -2.93    1.29    0.39   -0.56    0.00    0.00      -3.67    0.68   -0.97
#   9   -1.42   -2.03    0.30    0.28   -0.19    0.00    0.00      -3.06    0.50   -0.34
#  10    2.36   -1.65    0.31   -0.59   -0.28    0.00    0.00       0.16   -0.96   -0.45
#  11    1.01   -1.52    0.21   -0.22   -0.17    0.00    0.00      -0.70   -0.49   -0.36
#  12    1.08   -0.97    0.15   -0.24   -0.08    0.00    0.00      -0.06   -0.62   -0.21
#  13   -0.81   -0.80    0.06    0.49   -0.15    0.00    0.00      -1.19    1.25   -0.37
#  14   10.68   -1.08    0.09   -3.58    1.30    0.00    0.00       7.40   -9.80    3.55
#  15    0.11   -0.75    0.05   -0.05   -0.16    0.00    0.00      -0.80   -0.14   -0.42
#  16   -2.17   -0.45    0.01    0.71   -0.05    0.00    0.00      -1.95    2.66   -0.18
#  17    3.88   -0.89    0.22   -3.21    0.36    0.00    0.00       0.36  -13.37    1.48
#  18    3.21   -0.59    0.06   -0.71   -0.06    0.00    0.00       1.93   -2.69   -0.21
#  19   -0.21   -0.48    0.05    0.33   -0.06    0.00    0.00      -0.39    1.46   -0.28
#  20   16.47   -1.21    0.66   -4.70    0.18    0.00    0.00      11.40  -19.14    0.73
#  21  -22.39   -0.11    0.02    5.24    0.16    0.00    0.00     -17.08   18.53    0.57
#  22  -11.84   -0.01    0.00    2.65    0.08    0.00    0.00      -9.13   17.98    0.53
#  23   -0.99   -0.40    0.04    0.52   -0.08    0.00    0.00      -0.92    2.64   -0.42
#  24    3.91   -0.65    0.06   -0.75   -0.07    0.00    0.00       2.50   -3.84   -0.37
#  25    0.65   -0.31    0.01    0.01   -0.06    0.00    0.00       0.30    0.06   -0.46
#  26    1.48   -0.29    0.01   -0.39   -0.05    0.00    0.00       0.76   -3.27   -0.46
#  27   -2.94   -0.49    0.02    0.13   -0.06    0.00    0.00      -3.34    0.68   -0.32
#  28    3.44   -0.45    0.01   -0.33   -0.05    0.00    0.00       2.62   -1.44   -0.20
#  29  -12.00   -1.56    0.42    0.22   -0.06    0.00    0.00     -12.98    0.63   -0.17
#  30    9.45   -3.01    2.13    0.88   -0.15    0.00    0.00       9.31    2.43   -0.42
#  31    7.63   -2.51    1.12   -1.39   -0.21    0.00    0.00       4.64   -3.10   -0.46
#  32    0.66   -1.84    0.34    0.67   -0.20    0.00    0.00      -0.36    1.57   -0.47
#  33    3.77   -1.03    0.12   -1.15   -0.13    0.00    0.00       1.59   -3.77   -0.41
#  34    0.73   -1.48    0.39    0.07   -0.13    0.00    0.00      -0.43    0.24   -0.44
#  35   -0.40   -0.55    0.04    0.02   -0.11    0.00    0.00      -0.99    0.07   -0.39
#  36   -1.38   -1.30    0.14    0.29   -0.27    0.00    0.00      -2.52    0.78   -0.73
#  37    3.47   -1.15    0.11   -1.29    0.83    0.00    0.00       1.97   -3.96    2.54
#  38   -0.19   -0.21    0.09    0.26   -0.04    0.00    0.00      -0.10    1.95   -0.28
#  39    0.11   -0.56    0.48    0.13   -0.06    0.00    0.00       0.09    0.58   -0.28
#  40   -0.42   -0.14    0.01    0.14   -0.04    0.00    0.00      -0.44    1.10   -0.28
#  41   -2.47   -0.60    0.40    0.85   -0.11    0.00    0.00      -1.93    2.08   -0.28
#  42   -1.11   -0.46    0.08    0.90   -0.15    0.00    0.00      -0.73    1.70   -0.28
#  43   -4.89   -1.37    2.56    1.20   -0.16    0.00    0.00      -2.66    2.09   -0.28
#  44   -1.89   -0.43    0.10    0.25   -0.09    0.00    0.00      -2.05    0.70   -0.24
#  45   -1.56   -0.33    0.09    0.15   -0.06    0.00    0.00      -1.71    0.68   -0.27
#  46   -0.54   -0.29    0.05    0.28   -0.07    0.00    0.00      -0.57    1.13   -0.28
#  47   -0.67   -0.34    0.05    0.16   -0.09    0.00    0.00      -0.90    0.44   -0.26
#  48   -0.93   -0.27    0.02    0.24   -0.07    0.00    0.00      -1.00    0.86   -0.26
#  49   -2.47   -0.39    0.08    0.16   -0.09    0.00    0.00      -2.71    0.52   -0.27
#  50   -1.95   -0.13    0.00    0.14   -0.03    0.00    0.00      -1.97    1.20   -0.28
#  51   -2.70   -0.01    0.00    1.07    0.14    0.00    0.00      -1.50    9.37    1.22
#  52   -4.45   -0.32    0.08    1.19   -0.07    0.00    0.00      -3.57    4.46   -0.28
#  53   -1.80   -0.07    0.00    0.35   -0.02    0.00    0.00      -1.54    5.02   -0.27
#  54   -3.37   -0.17    0.02    0.98   -0.05    0.00    0.00      -2.59    5.64   -0.27
#  55   -1.60   -0.05    0.00    0.32   -0.01    0.00    0.00      -1.34    7.30   -0.28
#  56   -2.43   -0.15    0.01    1.20   -0.05    0.00    0.00      -1.42    7.22   -0.28
#  57   -1.57   -0.04    0.00    0.25   -0.01    0.00    0.00      -1.37    6.75   -0.28
#  58   -1.19   -0.03    0.00    0.05   -0.01    0.00    0.00      -1.18    1.50   -0.28
#  59   -8.03   -1.54    3.82    0.56   -0.13    0.00    0.00      -5.32    1.19   -0.28
#  60   -6.71   -0.81    0.55    2.35   -0.12    0.00    0.00      -4.74    5.47   -0.28
#  61   -5.50   -0.77    0.74    2.51   -0.09    0.00    0.00      -3.11    7.71   -0.28
#  62   -3.17   -0.28    0.08    0.74   -0.06    0.00    0.00      -2.70    3.26   -0.28
#  63   -0.75   -0.13    0.01    0.27   -0.03    0.00    0.00      -0.63    2.48   -0.26

@<TRIPOS>MOLECULE
          T527514        71
   63    67     0     0     0



@<TRIPOS>ATOM
      1 C1          6.4447   -10.7795    93.2236 C.3        1           0.0399
      2 O1          6.9689   -11.8569    94.0025 O.3        1          -0.2973
      3 C2          7.4581   -11.5485    95.2288 C.ar       1           0.3652
      4 C3          7.9887   -12.5673    96.0304 C.ar       1          -0.1617
      5 C4          8.4845   -12.2734    97.2648 C.ar       1          -0.0010
      6 C5          8.4460   -10.9321    97.7004 C.ar       1           0.0379
      7 N1          8.9176   -10.5842    98.8998 N.ar       1          -0.4191
      8 C6          8.8853    -9.3399    99.3106 C.ar       1           0.0996
      9 C7          8.3572    -8.3213    98.5154 C.ar       1           0.0806
     10 F1          8.3396    -7.0490    98.9694 F          1          -0.1180
     11 C8          7.8583    -8.6128    97.2760 C.ar       1          -0.0742
     12 C9          7.2837    -7.5302    96.3993 C.3        1          -0.0647
     13 C10         5.7864    -7.3877    96.6798 C.3        1           0.0567
     14 N2          5.2264    -6.3323    95.8252 N.3        1          -0.4957
     15 C11         3.7859    -6.1807    96.0530 C.3        1          -0.0053
     16 C12         3.1161    -6.3145    94.6763 C.3        1           0.1129
     17 O2          2.7362    -7.6677    94.4184 O.3        1          -0.5712
     18 C13         4.2640    -5.8738    93.7469 C.3        1          -0.1136
     19 C14         4.0290    -6.3347    92.3071 C.3        1           0.0090
     20 N3          5.3041    -6.3316    91.5775 N.4        1          -0.5129
     21 H1          5.6870    -5.3982    91.5735 H          1           0.4282
     22 H2          5.9520    -6.9590    92.0301 H          1           0.4239
     23 C15         5.0784    -6.7743    90.1951 C.3        1           0.0499
     24 C16         6.3864    -6.7712    89.4468 C.ar       1          -0.1888
     25 C17         7.1752    -7.9127    89.4338 C.ar       1          -0.0462
     26 C18         8.3758    -7.9306    88.7554 C.ar       1          -0.1238
     27 C19         8.8026    -6.7962    88.0766 C.ar       1           0.1793
     28 O3          9.9742    -6.7923    87.4058 O.3        1          -0.2678
     29 C20        10.3995    -5.7046    86.7450 C.2        1           0.5030
     30 O4         11.4632    -5.7476    86.1536 O.2        1          -0.4340
     31 C21         9.6451    -4.5115    86.7175 C.2        1          -0.2168
     32 C22         8.4578    -4.4492    87.3719 C.2        1          -0.0203
     33 C23         8.0006    -5.6418    88.0915 C.ar       1          -0.1523
     34 C24         6.7842    -5.6458    88.7811 C.ar       1          -0.0270
     35 C25         5.4104    -6.6520    94.4072 C.3        1           0.0166
     36 C26         7.8960    -9.9512    96.8405 C.ar       1           0.1510
     37 N4          7.4287   -10.2983    95.6372 N.ar       1          -0.5365
     38 H3          6.0872   -11.1626    92.2676 H          1           0.1019
     39 H4          5.6185   -10.3121    93.7593 H          1           0.0623
     40 H5          7.2283   -10.0422    93.0494 H          1           0.0558
     41 H6          8.0044   -13.5854    95.6701 H          1           0.1590
     42 H7          8.8968   -13.0480    97.8945 H          1           0.1635
     43 H8          9.2760    -9.0970   100.2878 H          1           0.1797
     44 H9          7.7848    -6.5858    96.6125 H          1           0.0915
     45 H10         7.4339    -7.7928    95.3521 H          1           0.0905
     46 H11         5.2854    -8.3320    96.4665 H          1           0.0793
     47 H12         5.6364    -7.1250    97.7269 H          1           0.0469
     48 H13         3.4279    -6.9637    96.7215 H          1           0.0638
     49 H14         3.5750    -5.1996    96.4785 H          1           0.0976
     50 H15         2.2600    -5.6455    94.5899 H          1           0.0876
     51 H16         2.3096    -7.7999    93.5608 H          1           0.3990
     52 H17         4.4285    -4.7974    93.7972 H          1           0.1145
     53 H18         3.6153    -7.3432    92.3114 H          1           0.1356
     54 H19         3.3290    -5.6570    91.8183 H          1           0.1449
     55 H20         4.6648    -7.7828    90.1996 H          1           0.1401
     56 H21         4.3785    -6.0967    89.7062 H          1           0.1438
     57 H22         6.8457    -8.7960    89.9608 H          1           0.1492
     58 H23         8.9826    -8.8240    88.7523 H          1           0.1577
     59 H24        10.0119    -3.6511    86.1776 H          1           0.1741
     60 H25         7.8662    -3.5456    87.3630 H          1           0.1604
     61 H26         6.1636    -4.7620    88.7912 H          1           0.1468
     62 H27         6.3774    -6.2973    94.0508 H          1           0.0954
     63 H28         5.3046    -7.7228    94.2330 H          1           0.0536
@<TRIPOS>BOND
     1    1    2 1
     2    1   38 1
     3    1   39 1
     4    1   40 1
     5    2    3 1
     6    3   37 ar
     7    3    4 ar
     8    4    5 ar
     9    4   41 1
    10    5    6 ar
    11    5   42 1
    12    6   36 ar
    13    6    7 ar
    14    7    8 ar
    15    8    9 ar
    16    8   43 1
    17    9   10 1
    18    9   11 ar
    19   11   12 1
    20   11   36 ar
    21   12   13 1
    22   12   44 1
    23   12   45 1
    24   13   14 1
    25   13   46 1
    26   13   47 1
    27   14   35 1
    28   14   15 1
    29   15   16 1
    30   15   48 1
    31   15   49 1
    32   16   17 1
    33   16   18 1
    34   16   50 1
    35   17   51 1
    36   18   19 1
    37   18   35 1
    38   18   52 1
    39   19   20 1
    40   19   53 1
    41   19   54 1
    42   20   21 1
    43   20   22 1
    44   20   23 1
    45   23   24 1
    46   23   55 1
    47   23   56 1
    48   24   34 ar
    49   24   25 ar
    50   25   26 ar
    51   25   57 1
    52   26   27 ar
    53   26   58 1
    54   27   33 ar
    55   27   28 1
    56   28   29 1
    57   29   30 2
    58   29   31 1
    59   31   32 2
    60   31   59 1
    61   32   33 1
    62   32   60 1
    63   33   34 ar
    64   34   61 1
    65   35   62 1
    66   35   63 1
    67   36   37 ar
##########                 Name:              T534269
##########          Protonation:                   71
##########               SMILES:   CCOc1c(cc(cc1OC)Br)C[NH2+]CCC[NH+]=c2[nH]c3ccccc3[nH]2
##########            Long Name:   y-phenyl)methyl-[3-(1,3-dihydrobenzimidazol-2-ylideneammonio)propyl]ammonium
##########          FlexRecCode: 1
##########               Number:                  334
##########   Ligand Source File: /raidb/db2/rgc/tcams/tcams-0001188.db2.gz
##########           GlobalRank: 162
##########                 Rank:                    1
##########               Setnum:                  231
##########             Matchnum:                 3347
##########                Cloud:                    1
##########        Electrostatic:           -41.546669
##########        Van der Waals:           -33.815250
##########  Ligand Polar Desolv:            12.628622
########## Ligand Apolar Desolv:            -4.172967
##########      Internal Energy:             0.000000
##########      Receptor Energy: 0.0
########## Receptor Desolvation:             0.000000
########## Receptor Hydrophobic:             0.000000
##########         Total Energy: -66.91
##########        Ligand Charge:             2.000000
##########            Arbitrary:    +999.9990
##########     heavy atom count:   27
##########           pose count:    1
##########        Ligand Energy:             0.000000
# num electro vdwattr vdwrepu polsolv apolsol rdesolv rhydroe totalscore fullpol fullapo
#   1    0.44   -0.86    0.41   -0.95   -0.05    0.00    0.00      -1.02   -4.02   -0.21
#   2   -0.29   -0.72    0.13    0.42   -0.03    0.00    0.00      -0.49    1.55   -0.12
#   3   -0.34   -2.92    2.57   -2.96    0.18    0.00    0.00      -3.47   -8.80    0.53
#   4   -0.24   -1.73    0.45    0.93   -0.09    0.00    0.00      -0.69    2.66   -0.27
#   5    0.95   -1.21    0.17   -0.63   -0.12    0.00    0.00      -0.84   -1.97   -0.37
#   6   -0.53   -0.64    0.08    0.82   -0.10    0.00    0.00      -0.37    3.09   -0.39
#   7    6.84   -0.70    0.07   -6.64    0.20    0.00    0.00      -0.23  -23.97    0.74
#   8   -2.71   -0.02    0.00    4.43    0.11    0.00    0.00       1.81   22.94    0.57
#   9   -8.10   -0.01    0.00    3.09    0.08    0.00    0.00      -4.94   20.80    0.53
#  10    0.11   -0.45    0.03    0.02   -0.09    0.00    0.00      -0.39    0.08   -0.40
#  11    4.39   -0.55    0.03   -2.47   -0.07    0.00    0.00       1.33   -8.16   -0.24
#  12   -3.04   -0.86    0.12    1.02   -0.14    0.00    0.00      -2.89    3.01   -0.41
#  13   19.00   -2.44    0.86  -11.36    0.71    0.00    0.00       6.77  -26.16    1.64
#  14  -14.77   -0.06    0.00    9.51    0.26    0.00    0.00      -5.06   20.77    0.57
#  15  -15.23   -2.35    0.87   10.96   -2.03    0.00    0.00      -7.77   26.78   -4.95
#  16   10.18   -1.22    0.19   -7.02    0.39    0.00    0.00       2.52  -20.87    1.16
#  17   -1.56   -1.26    0.12    1.07   -0.32    0.00    0.00      -1.95    2.61   -0.77
#  18    1.75   -1.72    0.69   -1.02   -0.18    0.00    0.00      -0.49   -2.65   -0.48
#  19    1.79   -2.45    1.17   -1.55   -0.22    0.00    0.00      -1.28   -3.25   -0.47
#  20    1.77   -1.98    0.24   -2.08   -0.31    0.00    0.00      -2.35   -3.19   -0.47
#  21    2.00   -2.59    0.66   -1.87   -0.31    0.00    0.00      -2.11   -2.93   -0.48
#  22   -1.88   -2.30    0.60    1.13   -0.39    0.00    0.00      -2.84    2.21   -0.77
#  23   13.55   -5.22    5.90  -10.17    0.60    0.00    0.00       4.65  -20.53    1.21
#  24    0.97   -1.31    0.16   -0.72   -0.16    0.00    0.00      -1.05   -2.01   -0.44
#  25    0.60   -1.53    0.26   -0.88   -0.13    0.00    0.00      -1.67   -2.05   -0.30
#  26    0.04   -6.48    2.54   -1.10   -0.63    0.00    0.00      -5.64   -1.93   -1.10
#  27    1.02   -1.70    0.41   -1.88   -0.20    0.00    0.00      -2.36   -3.90   -0.42
#  28   -0.63   -1.69    0.26    0.43   -0.14    0.00    0.00      -1.76    0.97   -0.31
#  29    2.13   -2.55    1.77   -3.00    0.32    0.00    0.00      -1.33   -5.79    0.62
#  30   -0.15   -2.35    1.35    0.18    0.02    0.00    0.00      -0.95    0.30    0.03
#  31   -0.40   -0.09    0.00    0.13   -0.03    0.00    0.00      -0.38    1.39   -0.28
#  32   -0.13   -0.43    0.21    1.30   -0.08    0.00    0.00       0.86    4.57   -0.28
#  33   -0.01   -0.37    0.43    0.06   -0.04    0.00    0.00       0.06    0.42   -0.28
#  34   -0.57   -0.21    0.02    0.76   -0.06    0.00    0.00      -0.06    3.53   -0.26
#  35   -0.44   -0.12    0.01   -0.05   -0.03    0.00    0.00      -0.63   -0.52   -0.28
#  36   -2.14   -0.22    0.04    1.33   -0.04    0.00    0.00      -1.03    7.65   -0.25
#  37   -0.43   -0.26    0.08    1.72   -0.05    0.00    0.00       1.06   10.20   -0.27
#  38   -4.49   -0.23    0.07    1.37   -0.05    0.00    0.00      -3.32    8.47   -0.28
#  39   -1.89   -0.10    0.00    0.91   -0.03    0.00    0.00      -1.10    9.60   -0.28
#  40   -2.21   -0.13    0.00    0.66   -0.03    0.00    0.00      -1.71    6.12   -0.28
#  41   -3.39   -0.23    0.01    1.22   -0.06    0.00    0.00      -2.44    5.43   -0.28
#  42   -4.74   -0.59    0.33    2.07   -0.09    0.00    0.00      -3.02    6.32   -0.28
#  43   -2.32   -0.14    0.01    1.02   -0.04    0.00    0.00      -1.49    6.62   -0.28
#  44   -6.49   -0.01    0.00    2.57    0.08    0.00    0.00      -3.85   19.49    0.57
#  45   -2.35   -0.31    0.12    1.18   -0.07    0.00    0.00      -1.43    4.88   -0.28
#  46   -3.72   -0.65    0.35    1.21   -0.12    0.00    0.00      -2.92    2.77   -0.28
#  47   -3.75   -0.55    0.20    1.29   -0.15    0.00    0.00      -2.95    2.46   -0.28
#  48   -3.61   -1.27    1.35    1.93   -0.14    0.00    0.00      -1.74    3.80   -0.28
#  49  -10.24   -0.32    0.15    9.69    0.33    0.00    0.00      -0.38   17.24    0.59
#  50   -2.30   -0.26    0.03    1.68   -0.06    0.00    0.00      -0.92    7.31   -0.28
#  51   -1.17   -0.37    0.08    0.67   -0.10    0.00    0.00      -0.88    1.55   -0.22
#  52   -1.69   -1.04    0.88    1.11   -0.18    0.00    0.00      -0.92    1.75   -0.28
#  53   -0.51   -0.56    0.14    0.59   -0.15    0.00    0.00      -0.48    1.09   -0.27
#  54   -0.60   -0.89    0.78    0.48   -0.16    0.00    0.00      -0.39    0.82   -0.27

@<TRIPOS>MOLECULE
          T534269        71
   54    56     0     0     0



@<TRIPOS>ATOM
      1 C1          6.2498   -12.6023    92.1033 C.3        1          -0.1527
      2 C2          7.0883   -11.9265    93.1901 C.3        1           0.0566
      3 O1          6.2595   -11.6306    94.3160 O.3        1          -0.3357
      4 C3          6.8543   -11.0238    95.3780 C.ar       1           0.0953
      5 C4          6.8973    -9.6410    95.4528 C.ar       1          -0.1450
      6 C5          6.2847    -8.8078    94.3566 C.3        1           0.0568
      7 N1          5.4958    -7.7203    94.9509 N.4        1          -0.5085
      8 H1          4.7641    -8.1106    95.5256 H          1           0.4313
      9 H2          6.0962    -7.1408    95.5184 H          1           0.4359
     10 C6          4.8987    -6.9081    93.8824 C.3        1          -0.0051
     11 C7          4.0772    -5.7753    94.5015 C.3        1          -0.1684
     12 C8          3.4553    -4.9294    93.3887 C.3        1           0.0997
     13 N2          2.6686    -3.8449    93.9813 N.pl3      1          -0.6558
     14 H3          3.0977    -3.1940    94.5585 H          1           0.4444
     15 C9          1.3894    -3.7544    93.7325 C.cat      1           0.6653
     16 N3          0.6670    -4.6112    92.9415 N.pl3      1          -0.5782
     17 C10        -0.6581    -4.1775    92.9273 C.ar       1           0.0772
     18 C11        -1.7996    -4.6585    92.3022 C.ar       1          -0.0849
     19 C12        -3.0051    -4.0065    92.4733 C.ar       1          -0.0744
     20 C13        -3.0792    -2.8742    93.2658 C.ar       1          -0.0738
     21 C14        -1.9481    -2.3876    93.8916 C.ar       1          -0.0836
     22 C15        -0.7329    -3.0363    93.7265 C.ar       1           0.0802
     23 N4          0.5463    -2.7904    94.2240 N.pl3      1          -0.5774
     24 C16         7.5017    -9.0254    96.5330 C.ar       1          -0.0889
     25 C17         8.0654    -9.7873    97.5406 C.ar       1          -0.0561
     26 Br1         8.8908    -8.9394    99.0155 Br         1          -0.0021
     27 C18         8.0261   -11.1682    97.4715 C.ar       1          -0.1393
     28 C19         7.4157   -11.7906    96.3945 C.ar       1           0.1300
     29 O2          7.3708   -13.1482    96.3279 O.3        1          -0.2949
     30 C20         7.9672   -13.8708    97.4069 C.3        1           0.0150
     31 H4          6.8821   -12.8280    91.2445 H          1           0.0869
     32 H5          5.8248   -13.5267    92.4945 H          1           0.0567
     33 H6          5.4455   -11.9337    91.7966 H          1           0.0733
     34 H7          7.8927   -12.5952    93.4969 H          1           0.0572
     35 H8          7.5135   -11.0021    92.7989 H          1           0.0706
     36 H9          7.0751    -8.3861    93.7359 H          1           0.1418
     37 H10         5.6363    -9.4337    93.7435 H          1           0.1477
     38 H11         5.6892    -6.4863    93.2618 H          1           0.1413
     39 H12         4.2503    -7.5341    93.2694 H          1           0.1425
     40 H13         3.2867    -6.1972    95.1222 H          1           0.1091
     41 H14         4.7255    -5.1494    95.1145 H          1           0.1093
     42 H15         4.2457    -4.5077    92.7679 H          1           0.1062
     43 H16         2.8068    -5.5555    92.7756 H          1           0.1063
     44 H17         1.0175    -5.3848    92.4726 H          1           0.4541
     45 H18        -1.7455    -5.5414    91.6825 H          1           0.1501
     46 H19        -3.8933    -4.3813    91.9866 H          1           0.1573
     47 H20        -4.0249    -2.3690    93.3950 H          1           0.1576
     48 H21        -2.0096    -1.5034    94.5087 H          1           0.1514
     49 H22         0.7972    -2.0619    94.8134 H          1           0.4585
     50 H23         7.5343    -7.9473    96.5901 H          1           0.1513
     51 H24         8.4667   -11.7611    98.2594 H          1           0.1573
     52 H25         7.8622   -14.9410    97.2295 H          1           0.1174
     53 H26         9.0248   -13.6157    97.4742 H          1           0.0665
     54 H27         7.4697   -13.6067    98.3401 H          1           0.0667
@<TRIPOS>BOND
     1    1    2 1
     2    1   31 1
     3    1   32 1
     4    1   33 1
     5    2    3 1
     6    2   34 1
     7    2   35 1
     8    3    4 1
     9    4   28 ar
    10    4    5 ar
    11    5    6 1
    12    5   24 ar
    13    6    7 1
    14    6   36 1
    15    6   37 1
    16    7    8 1
    17    7    9 1
    18    7   10 1
    19   10   11 1
    20   10   38 1
    21   10   39 1
    22   11   12 1
    23   11   40 1
    24   11   41 1
    25   12   13 1
    26   12   42 1
    27   12   43 1
    28   13   14 1
    29   13   15 2
    30   15   23 1
    31   15   16 1
    32   16   17 1
    33   16   44 1
    34   17   22 ar
    35   17   18 ar
    36   18   19 ar
    37   18   45 1
    38   19   20 ar
    39   19   46 1
    40   20   21 ar
    41   20   47 1
    42   21   22 ar
    43   21   48 1
    44   22   23 1
    45   23   49 1
    46   24   25 ar
    47   24   50 1
    48   25   26 1
    49   25   27 ar
    50   27   28 ar
    51   27   51 1
    52   28   29 1
    53   29   30 1
    54   30   52 1
    55   30   53 1
    56   30   54 1
##########                 Name:              T529078
##########          Protonation:                   83
##########               SMILES:   C[NH+]1CC[C@H](C1)Oc2ccc(c3c2cccc3)C[NH+]4CC[C@H](C4)NC(=O)c5ccc(c(c5)F)F
##########            Long Name:   lpyrrolidin-1-ium-3-yl]oxy-1-naphthyl]methyl]pyrrolidin-1-ium-3-yl]benzamide
##########          FlexRecCode: 1
##########               Number:                   48
##########   Ligand Source File: /raidb/db2/rgc/tcams/tcams-0000533.db2.gz
##########           GlobalRank: 163
##########                 Rank:                    1
##########               Setnum:                  320
##########             Matchnum:                 3058
##########                Cloud:                    1
##########        Electrostatic:           -56.106041
##########        Van der Waals:           -29.700533
##########  Ligand Polar Desolv:            23.028320
########## Ligand Apolar Desolv:            -4.111598
##########      Internal Energy:             0.000000
##########      Receptor Energy: 0.0
########## Receptor Desolvation:             0.000000
########## Receptor Hydrophobic:             0.000000
##########         Total Energy: -66.89
##########        Ligand Charge:             2.000000
##########            Arbitrary:    +999.9990
##########     heavy atom count:   34
##########           pose count:    1
##########        Ligand Energy:             0.000000
# num electro vdwattr vdwrepu polsolv apolsol rdesolv rhydroe totalscore fullpol fullapo
#   1    1.15   -1.76    0.36   -1.24   -0.32    0.00    0.00      -1.82   -1.81   -0.46
#   2    9.41   -1.60    0.22   -8.54    0.35    0.00    0.00      -0.16  -14.28    0.59
#   3  -10.77   -0.04    0.00    8.42    0.25    0.00    0.00      -2.14   18.95    0.56
#   4    0.21   -1.67    0.44    0.19   -0.28    0.00    0.00      -1.11    0.33   -0.49
#   5    4.31   -0.99    0.11   -2.64   -0.11    0.00    0.00       0.67   -6.11   -0.26
#   6   -1.25   -0.86    0.10    0.61   -0.05    0.00    0.00      -1.45    1.54   -0.12
#   7    0.22   -1.27    0.35    0.07   -0.22    0.00    0.00      -0.85    0.15   -0.48
#   8    3.58   -0.77    0.07   -2.86    0.24    0.00    0.00       0.25   -9.65    0.80
#   9   -1.48   -1.11    0.45    0.93   -0.07    0.00    0.00      -1.28    3.89   -0.31
#  10    0.12   -1.15    0.66   -0.70   -0.09    0.00    0.00      -1.16   -3.15   -0.40
#  11    0.10   -0.76    0.11   -0.65   -0.11    0.00    0.00      -1.31   -2.69   -0.45
#  12    0.13   -0.64    0.04   -0.99   -0.12    0.00    0.00      -1.58   -3.93   -0.47
#  13    0.09   -0.73    0.08   -0.79   -0.11    0.00    0.00      -1.46   -3.54   -0.47
#  14    0.33   -0.82    0.12   -0.77   -0.09    0.00    0.00      -1.22   -3.44   -0.40
#  15   -0.01   -1.08    0.40   -0.11   -0.10    0.00    0.00      -0.90   -0.47   -0.40
#  16    3.20   -1.17    0.24   -1.45   -0.09    0.00    0.00       0.73   -5.30   -0.33
#  17   -1.22   -0.96    0.27    0.57   -0.08    0.00    0.00      -1.43    2.00   -0.28
#  18   10.78   -0.87    0.27   -3.43    0.10    0.00    0.00       6.84  -15.38    0.45
#  19  -15.54   -0.03    0.00    3.65    0.09    0.00    0.00     -11.83   19.76    0.49
#  20    0.14   -0.76    0.20    0.16   -0.10    0.00    0.00      -0.36    0.65   -0.42
#  21    2.32   -0.23    0.01   -0.82   -0.04    0.00    0.00       1.24   -5.61   -0.29
#  22   -1.49   -0.22    0.01    0.52   -0.04    0.00    0.00      -1.22    3.67   -0.31
#  23    0.31   -0.22    0.01    0.03   -0.06    0.00    0.00       0.06    0.22   -0.47
#  24    9.10   -0.67    0.06   -4.48    0.45    0.00    0.00       4.47  -20.51    2.08
#  25   -3.13   -1.03    0.22    2.95   -0.15    0.00    0.00      -1.15   12.50   -0.65
#  26   -0.88   -2.95    4.05   -2.32    0.09    0.00    0.00      -2.00   -9.76    0.39
#  27    0.90   -1.17    0.18   -0.68   -0.12    0.00    0.00      -0.88   -2.31   -0.41
#  28    0.23   -1.56    0.29   -0.05   -0.16    0.00    0.00      -1.24   -0.13   -0.44
#  29    0.78   -1.69    0.36   -0.88   -0.19    0.00    0.00      -1.63   -2.19   -0.47
#  30   -1.21   -1.55    0.26    0.10   -0.15    0.00    0.00      -2.55    0.22   -0.34
#  31    1.71   -1.20    0.38   -0.74   -0.26    0.00    0.00      -0.12   -1.36   -0.47
#  32   -0.98   -1.61    0.34   -0.12   -0.13    0.00    0.00      -2.50   -0.30   -0.34
#  33    2.10   -1.28    0.34   -0.52   -0.23    0.00    0.00       0.41   -1.05   -0.47
#  34    0.83   -1.46    0.40   -0.41   -0.14    0.00    0.00      -0.79   -1.27   -0.45
#  35    0.53   -1.21    0.25   -0.34   -0.12    0.00    0.00      -0.89   -1.24   -0.42
#  36    3.62   -1.06    0.24   -1.83   -0.10    0.00    0.00       0.87   -7.25   -0.41
#  37   -3.02   -0.53    0.08    2.52   -0.15    0.00    0.00      -1.12    4.56   -0.28
#  38   -3.10   -0.60    0.21    2.59   -0.15    0.00    0.00      -1.05    4.96   -0.28
#  39   -2.94   -0.81    0.34    3.01   -0.17    0.00    0.00      -0.57    5.08   -0.28
#  40   -3.36   -1.00    1.12    2.84   -0.12    0.00    0.00      -0.51    6.50   -0.27
#  41   -3.68   -0.77    0.30    3.29   -0.15    0.00    0.00      -1.02    6.20   -0.28
#  42   -2.95   -0.34    0.06    1.36   -0.08    0.00    0.00      -1.95    4.31   -0.25
#  43   -3.45   -0.33    0.07    0.82   -0.08    0.00    0.00      -2.98    2.70   -0.28
#  44   -1.81   -0.49    0.25    1.63   -0.08    0.00    0.00      -0.51    4.67   -0.22
#  45   -3.62   -0.78    1.26    1.65   -0.09    0.00    0.00      -1.58    4.88   -0.28
#  46   -3.36   -0.83    1.24    2.22   -0.09    0.00    0.00      -0.82    6.20   -0.26
#  47   -0.17   -0.15    0.01    0.38   -0.05    0.00    0.00       0.03    2.24   -0.27
#  48   -0.12   -0.12    0.00    0.19   -0.03    0.00    0.00      -0.08    1.55   -0.28
#  49   -0.19   -0.13    0.01    0.44   -0.04    0.00    0.00       0.08    3.15   -0.28
#  50   -0.34   -0.13    0.01    1.11   -0.03    0.00    0.00       0.61    8.01   -0.22
#  51   -1.91   -0.13    0.01    1.07   -0.03    0.00    0.00      -1.00    7.49   -0.24
#  52   -6.66   -1.11    1.76    2.81   -0.09    0.00    0.00      -3.28    7.99   -0.26
#  53   -3.92   -0.24    0.04    1.38   -0.05    0.00    0.00      -2.79    6.67   -0.24
#  54   -4.73   -0.46    0.24    1.75   -0.08    0.00    0.00      -3.28    6.22   -0.28
#  55   -1.33   -0.03    0.00    0.05   -0.01    0.00    0.00      -1.32    1.48   -0.28
#  56   -1.35   -0.08    0.00    0.28   -0.02    0.00    0.00      -1.17    3.47   -0.28
#  57   -0.70   -0.05    0.00    0.14   -0.01    0.00    0.00      -0.62    2.92   -0.26
#  58   -1.46   -0.07    0.00    0.60   -0.02    0.00    0.00      -0.94    8.56   -0.26
#  59   -1.26   -0.04    0.00    0.31   -0.01    0.00    0.00      -1.00    8.17   -0.26
#  60   -7.46   -0.02    0.00    2.91    0.08    0.00    0.00      -4.49   15.54    0.43
#  61   -0.10   -0.45    0.14    2.48   -0.07    0.00    0.00       1.99    8.38   -0.22
#  62   -0.83   -0.44    0.14    1.54   -0.10    0.00    0.00       0.31    4.39   -0.28
#  63   -3.23   -0.30    0.08    0.29   -0.06    0.00    0.00      -3.22    1.35   -0.26
#  64   -4.52   -0.25    0.04    1.61   -0.06    0.00    0.00      -3.18    7.45   -0.27
#  65   -2.74   -0.15    0.01    0.94   -0.03    0.00    0.00      -1.97    6.13   -0.17

@<TRIPOS>MOLECULE
          T529078        83
   65    69     0     0     0



@<TRIPOS>ATOM
      1 C1         -3.5142    -2.0488    93.4509 C.3        1          -0.0483
      2 N1         -2.8675    -3.3442    93.6992 N.4        1          -0.3882
      3 H1         -3.5150    -3.9647    94.1615 H          1           0.4360
      4 C2         -1.6728    -3.1493    94.5482 C.3        1          -0.0087
      5 C3         -0.6415    -4.1786    94.0220 C.3        1          -0.1732
      6 C4         -0.9140    -4.1426    92.4952 C.3        1           0.0667
      7 C5         -2.4387    -3.9381    92.4197 C.3        1          -0.0092
      8 O1         -0.5376    -5.3791    91.8857 O.3        1          -0.2869
      9 C6          0.7391    -5.4805    91.4339 C.ar       1           0.1837
     10 C7          0.9915    -5.7306    90.0695 C.ar       1          -0.0716
     11 C8         -0.0582    -5.8801    89.1490 C.ar       1          -0.0729
     12 C9          0.2235    -6.1207    87.8390 C.ar       1          -0.1158
     13 C10         1.5407    -6.2213    87.3954 C.ar       1          -0.0611
     14 C11         2.5832    -6.0823    88.2594 C.ar       1          -0.1562
     15 C12         2.3309    -5.8328    89.6191 C.ar       1           0.0026
     16 C13         3.3817    -5.6820    90.5404 C.ar       1          -0.1815
     17 C14         4.8126    -5.7870    90.0793 C.3        1           0.0457
     18 N2          5.5700    -6.6237    91.0194 N.4        1          -0.3886
     19 H2          5.5452    -6.2109    91.9397 H          1           0.4267
     20 C15         6.9491    -6.7429    90.5707 C.3        1          -0.0051
     21 C16         7.1772    -8.2170    90.2614 C.3        1          -0.1596
     22 C17         6.2163    -8.8806    91.2634 C.3        1           0.1371
     23 C18         4.9889    -7.9708    91.0641 C.3        1          -0.0234
     24 N3          6.7300    -8.7974    92.6329 N.am       1          -0.7265
     25 C19         6.3427    -9.7019    93.5540 C.2        1           0.5772
     26 O2          5.5670   -10.5868    93.2485 O.2        1          -0.5104
     27 C20         6.8608    -9.6181    94.9349 C.ar       1          -0.1343
     28 C21         6.9532   -10.7696    95.7195 C.ar       1          -0.0665
     29 C22         7.4371   -10.6870    97.0077 C.ar       1          -0.1308
     30 C23         7.8320    -9.4636    97.5258 C.ar       1           0.1095
     31 F1          8.3055    -9.3887    98.7889 F          1          -0.1120
     32 C24         7.7431    -8.3150    96.7510 C.ar       1           0.0694
     33 F2          8.1303    -7.1254    97.2609 F          1          -0.1141
     34 C25         7.2649    -8.3881    95.4580 C.ar       1          -0.0613
     35 C26         3.1024    -5.4406    91.8508 C.ar       1          -0.0234
     36 C27         1.7878    -5.3348    92.2975 C.ar       1          -0.2337
     37 H3         -2.8114    -1.3817    92.9516 H          1           0.1289
     38 H4         -4.3890    -2.1950    92.8175 H          1           0.1304
     39 H5         -3.8217    -1.6084    94.3994 H          1           0.1239
     40 H6         -1.2884    -2.1354    94.4355 H          1           0.1398
     41 H7         -1.9120    -3.3515    95.5921 H          1           0.1456
     42 H8          0.3767    -3.8596    94.2446 H          1           0.1232
     43 H9         -0.8365    -5.1701    94.4304 H          1           0.1141
     44 H10        -0.3907    -3.3074    92.0299 H          1           0.1167
     45 H11        -2.9330    -4.8984    92.2726 H          1           0.1485
     46 H12        -2.6815    -3.2640    91.5982 H          1           0.1492
     47 H13        -1.0839    -5.8050    89.4788 H          1           0.1389
     48 H14        -0.5858    -6.2355    87.1332 H          1           0.1393
     49 H15         1.7371    -6.4127    86.3509 H          1           0.1390
     50 H16         3.5990    -6.1635    87.9017 H          1           0.1265
     51 H17         4.8423    -6.2372    89.0869 H          1           0.1404
     52 H18         5.2556    -4.7918    90.0401 H          1           0.1417
     53 H19         7.1042    -6.1435    89.6734 H          1           0.1347
     54 H20         7.6286    -6.4158    91.3576 H          1           0.1352
     55 H21         6.8962    -8.4506    89.2344 H          1           0.1256
     56 H22         8.2099    -8.5042    90.4588 H          1           0.1042
     57 H23         5.9975    -9.9109    90.9827 H          1           0.1291
     58 H24         4.3014    -8.0656    91.9046 H          1           0.1388
     59 H25         4.4846    -8.2036    90.1262 H          1           0.1478
     60 H26         7.3488    -8.0914    92.8767 H          1           0.4082
     61 H27         6.6457   -11.7237    95.3177 H          1           0.1406
     62 H28         7.5083   -11.5774    97.6146 H          1           0.1592
     63 H29         7.1996    -7.4952    94.8537 H          1           0.1628
     64 H30         3.9136    -5.3260    92.5546 H          1           0.1387
     65 H31         1.5944    -5.1386    93.3417 H          1           0.1378
@<TRIPOS>BOND
     1    1    2 1
     2    1   37 1
     3    1   38 1
     4    1   39 1
     5    2    3 1
     6    2    7 1
     7    2    4 1
     8    4    5 1
     9    4   40 1
    10    4   41 1
    11    5    6 1
    12    5   42 1
    13    5   43 1
    14    6    7 1
    15    6    8 1
    16    6   44 1
    17    7   45 1
    18    7   46 1
    19    8    9 1
    20    9   36 ar
    21    9   10 ar
    22   10   15 ar
    23   10   11 ar
    24   11   12 ar
    25   11   47 1
    26   12   13 ar
    27   12   48 1
    28   13   14 ar
    29   13   49 1
    30   14   15 ar
    31   14   50 1
    32   15   16 ar
    33   16   17 1
    34   16   35 ar
    35   17   18 1
    36   17   51 1
    37   17   52 1
    38   18   19 1
    39   18   23 1
    40   18   20 1
    41   20   21 1
    42   20   53 1
    43   20   54 1
    44   21   22 1
    45   21   55 1
    46   21   56 1
    47   22   23 1
    48   22   24 1
    49   22   57 1
    50   23   58 1
    51   23   59 1
    52   24   25 am
    53   24   60 1
    54   25   26 2
    55   25   27 1
    56   27   34 ar
    57   27   28 ar
    58   28   29 ar
    59   28   61 1
    60   29   30 ar
    61   29   62 1
    62   30   31 1
    63   30   32 ar
    64   32   33 1
    65   32   34 ar
    66   34   63 1
    67   35   36 ar
    68   35   64 1
    69   36   65 1
##########                 Name:              T530458
##########          Protonation:                   17
##########               SMILES:   CCN(CCC[NH+]1CCCCC1)c2[nH+]c(cc(n2)Nc3ccc(cc3)Cl)C
##########            Long Name:   -ethyl-6-methyl-N2-(3-piperidin-1-ium-1-ylpropyl)pyrimidin-1-ium-2,4-diamine
##########          FlexRecCode: 1
##########               Number:                  278
##########   Ligand Source File: /raidb/db2/rgc/tcams/tcams-0000673.db2.gz
##########           GlobalRank: 164
##########                 Rank:                    1
##########               Setnum:                  228
##########             Matchnum:                 3285
##########                Cloud:                    1
##########        Electrostatic:           -49.527847
##########        Van der Waals:           -24.832018
##########  Ligand Polar Desolv:            12.722705
########## Ligand Apolar Desolv:            -5.234587
##########      Internal Energy:             0.000000
##########      Receptor Energy: 0.0
########## Receptor Desolvation:             0.000000
########## Receptor Hydrophobic:             0.000000
##########         Total Energy: -66.87
##########        Ligand Charge:             2.000000
##########            Arbitrary:    +999.9990
##########     heavy atom count:   27
##########           pose count:    1
##########        Ligand Energy:             0.000000
# num electro vdwattr vdwrepu polsolv apolsol rdesolv rhydroe totalscore fullpol fullapo
#   1    4.63   -0.79    0.07   -2.32   -0.08    0.00    0.00       1.50   -6.13   -0.21
#   2   -1.61   -0.48    0.02    0.97   -0.12    0.00    0.00      -1.22    3.56   -0.44
#   3   11.66   -0.67    0.02   -4.89    0.34    0.00    0.00       6.47  -20.29    1.42
#   4   -3.17   -0.51    0.06    0.88   -0.09    0.00    0.00      -2.83    3.95   -0.41
#   5    2.16   -0.32    0.02   -1.13   -0.04    0.00    0.00       0.69   -6.64   -0.22
#   6    0.10   -0.22    0.01    0.00   -0.04    0.00    0.00      -0.15    0.03   -0.35
#   7    8.79   -0.56    0.08   -2.88    0.05    0.00    0.00       5.47  -14.58    0.27
#   8  -15.08   -0.03    0.00    3.82    0.11    0.00    0.00     -11.18   18.60    0.54
#   9    0.23   -0.45    0.04    0.09   -0.07    0.00    0.00      -0.15    0.45   -0.37
#  10    4.16   -0.92    0.23   -1.34   -0.07    0.00    0.00       2.07   -4.72   -0.25
#  11    2.81   -0.49    0.05   -0.96   -0.06    0.00    0.00       1.36   -4.31   -0.25
#  12    2.92   -0.85    0.26   -1.18   -0.06    0.00    0.00       1.08   -4.59   -0.25
#  13    0.12   -0.35    0.03    0.14   -0.07    0.00    0.00      -0.13    0.73   -0.38
#  14  -13.62   -0.87    0.04    6.97   -1.44    0.00    0.00      -8.91   22.55   -4.66
#  15   17.17   -1.49    0.20   -8.54    0.40    0.00    0.00       7.74  -19.87    0.94
#  16  -17.98   -0.03    0.00    6.19    0.15    0.00    0.00     -11.68   17.17    0.41
#  17   -6.39   -2.51    1.54    4.56   -0.36    0.00    0.00      -3.16    9.45   -0.75
#  18    4.28   -2.98    2.12   -3.05   -0.13    0.00    0.00       0.24   -5.03   -0.21
#  19    4.83   -2.01    0.80   -4.46   -0.21    0.00    0.00      -1.05   -9.48   -0.45
#  20   -6.70   -1.34    0.13    6.82   -0.83    0.00    0.00      -1.92   16.12   -1.97
#  21    5.18   -3.03    1.74   -8.68    0.48    0.00    0.00      -4.30  -18.79    1.04
#  22   -0.79   -2.59    1.50    1.82   -0.28    0.00    0.00      -0.34    4.43   -0.68
#  23    1.06   -2.72    2.78   -1.65   -0.22    0.00    0.00      -0.75   -3.44   -0.46
#  24    0.70   -1.68    0.27   -1.54   -0.25    0.00    0.00      -2.51   -2.78   -0.46
#  25    0.31   -1.42    0.11   -0.87   -0.15    0.00    0.00      -2.03   -1.69   -0.30
#  26    0.57   -6.13    4.80   -1.34   -0.53    0.00    0.00      -2.63   -2.49   -0.99
#  27    0.47   -1.64    0.27   -0.87   -0.19    0.00    0.00      -1.96   -2.09   -0.46
#  28    0.20   -2.14    0.60   -0.96   -0.15    0.00    0.00      -2.46   -2.49   -0.39
#  29    6.69   -1.12    0.10   -6.76    0.41    0.00    0.00      -0.67  -19.38    1.17
#  30   -2.53   -0.26    0.03    0.50   -0.08    0.00    0.00      -2.34    1.83   -0.28
#  31   -2.09   -0.38    0.07    0.54   -0.09    0.00    0.00      -1.95    1.74   -0.28
#  32   -1.58   -0.24    0.02    0.34   -0.07    0.00    0.00      -1.52    1.38   -0.28
#  33   -1.65   -0.19    0.01    1.17   -0.06    0.00    0.00      -0.71    5.94   -0.28
#  34   -1.16   -0.11    0.00    0.43   -0.02    0.00    0.00      -0.86    4.37   -0.21
#  35   -2.88   -0.15    0.01    0.56   -0.03    0.00    0.00      -2.48    3.71   -0.22
#  36   -4.37   -0.42    0.38    1.00   -0.05    0.00    0.00      -3.46    5.23   -0.28
#  37   -0.98   -0.11    0.01    0.53   -0.02    0.00    0.00      -0.57    5.27   -0.22
#  38   -0.49   -0.12    0.01    0.38   -0.03    0.00    0.00      -0.25    3.52   -0.28
#  39   -0.98   -0.04    0.00    0.24   -0.01    0.00    0.00      -0.79    6.32   -0.28
#  40   -1.72   -0.06    0.00    0.40   -0.02    0.00    0.00      -1.39    7.19   -0.28
#  41   -1.58   -0.05    0.00    0.27   -0.01    0.00    0.00      -1.37    5.76   -0.28
#  42   -2.50   -0.18    0.02    1.27   -0.04    0.00    0.00      -1.43    7.38   -0.22
#  43   -2.91   -0.20    0.02    0.40   -0.06    0.00    0.00      -2.74    1.97   -0.28
#  44   -3.68   -1.08    1.47    1.00   -0.10    0.00    0.00      -2.39    2.85   -0.28
#  45   -1.09   -0.06    0.00    0.09   -0.01    0.00    0.00      -1.08    1.71   -0.28
#  46   -1.97   -0.18    0.02    0.00   -0.05    0.00    0.00      -2.18   -0.02   -0.28
#  47   -1.57   -0.32    0.14    0.26   -0.05    0.00    0.00      -1.53    1.42   -0.28
#  48   -2.48   -0.70    0.70    0.89   -0.09    0.00    0.00      -1.68    2.65   -0.28
#  49   -1.96   -0.12    0.01    0.66   -0.03    0.00    0.00      -1.44    5.89   -0.28
#  50   -1.41   -0.04    0.00    0.22   -0.01    0.00    0.00      -1.25    5.43   -0.28
#  51   -3.10   -1.09    0.94    2.40   -0.18    0.00    0.00      -1.02    3.79   -0.28
#  52   -4.78   -1.19    1.10    2.50   -0.18    0.00    0.00      -2.56    3.84   -0.28
#  53   -2.95   -1.55    2.54    2.74   -0.19    0.00    0.00       0.60    4.11   -0.28
#  54   -3.43   -0.47    0.12    2.87   -0.12    0.00    0.00      -1.02    6.85   -0.28
#  55   -3.79   -0.12    0.02    6.41    0.27    0.00    0.00       2.78   14.01    0.59
#  56   -2.11   -0.66    0.69    1.60   -0.11    0.00    0.00      -0.60    3.92   -0.28
#  57   -1.07   -0.40    0.07    1.08   -0.13    0.00    0.00      -0.45    2.33   -0.28
#  58   -0.70   -0.37    0.08    1.44   -0.08    0.00    0.00       0.38    4.96   -0.28
#  59    0.31   -0.70    0.67    1.66   -0.06    0.00    0.00       1.88    5.29   -0.19

@<TRIPOS>MOLECULE
          T530458        17
   59    61     0     0     0



@<TRIPOS>ATOM
      1 C1          2.3219    -5.0561    95.0569 C.3        1          -0.1850
      2 C2          2.7640    -6.5029    94.8283 C.3        1           0.0916
      3 N1          4.1607    -6.5227    94.3865 N.pl3      1          -0.5682
      4 C3          4.4780    -6.4582    92.9576 C.3        1           0.1243
      5 C4          4.5443    -7.8757    92.3855 C.3        1          -0.1702
      6 C5          4.8756    -7.8084    90.8934 C.3        1          -0.0075
      7 N2          6.1732    -7.1448    90.7093 N.4        1          -0.3820
      8 H1          6.2475    -6.3696    91.3509 H          1           0.4216
      9 C6          6.2764    -6.6492    89.3316 C.3        1          -0.0113
     10 C7          7.5916    -5.8865    89.1570 C.3        1          -0.1461
     11 C8          8.7637    -6.8269    89.4522 C.3        1          -0.1410
     12 C9          8.6057    -7.3957    90.8652 C.3        1          -0.1467
     13 C10         7.2530    -8.1029    90.9746 C.3        1          -0.0074
     14 C11         5.1804    -6.6024    95.3188 C.ar       1           0.6515
     15 N3          6.0747    -5.6266    95.3831 N.ar       1          -0.5718
     16 H2          6.0030    -4.8719    94.7780 H          1           0.4401
     17 C12         7.0648    -5.6672    96.2623 C.ar       1           0.2539
     18 C13         8.0743    -4.5501    96.3246 C.3        1          -0.1452
     19 C14         7.1616    -6.7443    97.1219 C.ar       1          -0.2681
     20 C15         6.2050    -7.7573    97.0308 C.ar       1           0.5181
     21 N4          6.2623    -8.8567    97.8733 N.pl3      1          -0.6005
     22 C16         6.9835    -9.9927    97.4925 C.ar       1           0.1226
     23 C17         8.0414   -10.4394    98.2738 C.ar       1          -0.1107
     24 C18         8.7520   -11.5615    97.8954 C.ar       1          -0.0850
     25 C19         8.4112   -12.2405    96.7392 C.ar       1          -0.0379
     26 Cl1         9.3065   -13.6508    96.2664 Cl         1          -0.0457
     27 C20         7.3574   -11.7976    95.9584 C.ar       1          -0.1003
     28 C21         6.6396   -10.6796    96.3354 C.ar       1          -0.1003
     29 N5          5.2351    -7.6493    96.1280 N.ar       1          -0.5720
     30 H3          1.2828    -5.0414    95.3856 H          1           0.0949
     31 H4          2.9514    -4.6004    95.8214 H          1           0.0771
     32 H5          2.4168    -4.4958    94.1268 H          1           0.0604
     33 H6          2.6692    -7.0631    95.7584 H          1           0.1164
     34 H7          2.1347    -6.9586    94.0638 H          1           0.0846
     35 H8          3.7041    -5.8928    92.4388 H          1           0.1124
     36 H9          5.4409    -5.9658    92.8211 H          1           0.1109
     37 H10         5.3182    -8.4410    92.9044 H          1           0.0944
     38 H11         3.5814    -8.3680    92.5220 H          1           0.0932
     39 H12         4.9227    -8.8182    90.4857 H          1           0.1357
     40 H13         4.1015    -7.2429    90.3744 H          1           0.1362
     41 H14         6.2508    -7.4914    88.6400 H          1           0.1314
     42 H15         5.4398    -5.9827    89.1220 H          1           0.1258
     43 H16         7.6672    -5.5210    88.1329 H          1           0.1137
     44 H17         7.6181    -5.0439    89.8478 H          1           0.0865
     45 H18         8.7674    -7.6427    88.7292 H          1           0.0839
     46 H19         9.7005    -6.2740    89.3844 H          1           0.0971
     47 H20         9.4062    -8.1088    91.0622 H          1           0.1159
     48 H21         8.6533    -6.5844    91.5915 H          1           0.0876
     49 H22         7.1379    -8.5104    91.9790 H          1           0.1316
     50 H23         7.2060    -8.9133    90.2473 H          1           0.1315
     51 H24         8.8046    -4.7633    97.1050 H          1           0.1235
     52 H25         8.5829    -4.4661    95.3641 H          1           0.1236
     53 H26         7.5655    -3.6126    96.5494 H          1           0.1018
     54 H27         7.9594    -6.8017    97.8477 H          1           0.1894
     55 H28         5.8021    -8.8380    98.7271 H          1           0.4422
     56 H29         8.3084    -9.9095    99.1762 H          1           0.1445
     57 H30         9.5747   -11.9093    98.5025 H          1           0.1488
     58 H31         7.0936   -12.3294    95.0562 H          1           0.1423
     59 H32         5.8143   -10.3372    95.7287 H          1           0.1422
@<TRIPOS>BOND
     1    1    2 1
     2    1   30 1
     3    1   31 1
     4    1   32 1
     5    2    3 1
     6    2   33 1
     7    2   34 1
     8    3    4 1
     9    3   14 1
    10    4    5 1
    11    4   35 1
    12    4   36 1
    13    5    6 1
    14    5   37 1
    15    5   38 1
    16    6    7 1
    17    6   39 1
    18    6   40 1
    19    7    8 1
    20    7   13 1
    21    7    9 1
    22    9   10 1
    23    9   41 1
    24    9   42 1
    25   10   11 1
    26   10   43 1
    27   10   44 1
    28   11   12 1
    29   11   45 1
    30   11   46 1
    31   12   13 1
    32   12   47 1
    33   12   48 1
    34   13   49 1
    35   13   50 1
    36   14   29 ar
    37   14   15 ar
    38   15   16 1
    39   15   17 ar
    40   17   18 1
    41   17   19 ar
    42   18   51 1
    43   18   52 1
    44   18   53 1
    45   19   20 ar
    46   19   54 1
    47   20   21 1
    48   20   29 ar
    49   21   22 1
    50   21   55 1
    51   22   28 ar
    52   22   23 ar
    53   23   24 ar
    54   23   56 1
    55   24   25 ar
    56   24   57 1
    57   25   26 1
    58   25   27 ar
    59   27   28 ar
    60   27   58 1
    61   28   59 1
##########                 Name:              T536097
##########          Protonation:                   79
##########               SMILES:   c1cc(ccc1NC(=[NH2+])N)NC(=O)Nc2ccc(cc2)NC(=[NH2+])N
##########            Long Name:   azaniumylidene)methyl]amino]phenyl]carbamoylamino]anilino]methylene]ammonium
##########          FlexRecCode: 1
##########               Number:                  164
##########   Ligand Source File: /raidb/db2/rgc/tcams/tcams-0001458.db2.gz
##########           GlobalRank: 166
##########                 Rank:                    1
##########               Setnum:                  142
##########             Matchnum:                 2298
##########                Cloud:                    1
##########        Electrostatic:           -62.248718
##########        Van der Waals:           -17.974453
##########  Ligand Polar Desolv:            14.085400
########## Ligand Apolar Desolv:            -0.726185
##########      Internal Energy:             0.000000
##########      Receptor Energy: 0.0
########## Receptor Desolvation:             0.000000
########## Receptor Hydrophobic:             0.000000
##########         Total Energy: -66.86
##########        Ligand Charge:             2.000000
##########            Arbitrary:    +999.9990
##########     heavy atom count:   24
##########           pose count:    1
##########        Ligand Energy:             0.000000
# num electro vdwattr vdwrepu polsolv apolsol rdesolv rhydroe totalscore fullpol fullapo
#   1   20.10   -2.32    0.77  -11.21    0.36    0.00    0.00       7.69  -26.47    0.85
#   2  -19.83   -1.54    0.28   10.31   -2.02    0.00    0.00     -12.80   24.81   -4.86
#   3   26.14   -3.20    2.32  -12.31    0.43    0.00    0.00      13.37  -26.60    0.92
#   4  -12.71   -0.04    0.00    6.58    0.24    0.00    0.00      -5.93   16.08    0.59
#   5  -21.47   -0.19    0.09    6.96    0.25    0.00    0.00     -14.36   16.45    0.59
#   6   14.56   -1.02    0.07   -7.81    0.41    0.00    0.00       6.20  -19.95    1.05
#   7   -1.42   -0.69    0.03    0.87   -0.16    0.00    0.00      -1.37    3.51   -0.64
#   8    1.26   -1.12    0.32   -0.89   -0.10    0.00    0.00      -0.52   -3.33   -0.36
#   9    1.00   -0.98    0.27   -0.64   -0.11    0.00    0.00      -0.46   -2.78   -0.46
#  10   -2.88   -0.56    0.03    0.53   -0.13    0.00    0.00      -3.01    2.68   -0.67
#  11   11.08   -0.49    0.02   -2.76    0.33    0.00    0.00       8.18  -14.20    1.69
#  12   -6.60   -0.55    0.04    2.49   -0.38    0.00    0.00      -5.00   12.96   -1.99
#  13    1.76   -1.11    0.31   -2.13    0.06    0.00    0.00      -1.11   -9.52    0.29
#  14    6.08   -0.44    0.04   -2.15    0.26    0.00    0.00       3.78  -13.99    1.70
#  15   -2.12   -0.37    0.02    0.37   -0.10    0.00    0.00      -2.19    2.63   -0.68
#  16    0.85   -0.16    0.00   -0.19   -0.03    0.00    0.00       0.47   -3.09   -0.46
#  17    0.65   -0.20    0.00   -0.21   -0.04    0.00    0.00       0.22   -2.59   -0.46
#  18   -1.11   -0.38    0.01    0.49   -0.09    0.00    0.00      -1.07    3.32   -0.62
#  19   10.55   -0.61    0.03   -4.95    0.26    0.00    0.00       5.28  -19.79    1.05
#  20  -17.70   -1.13    0.13    8.53   -1.70    0.00    0.00     -11.85   24.49   -4.87
#  21   14.69   -1.02    0.09   -8.67    0.27    0.00    0.00       5.36  -26.00    0.82
#  22   29.25   -3.43    2.60  -11.97    0.42    0.00    0.00      16.87  -26.38    0.92
#  23  -16.66   -0.04    0.00    6.42    0.23    0.00    0.00     -10.05   16.27    0.59
#  24  -21.12   -0.15    0.03    7.51    0.28    0.00    0.00     -13.46   15.99    0.59
#  25    2.66   -0.84    0.11   -0.72   -0.09    0.00    0.00       1.13   -3.05   -0.36
#  26    1.79   -0.92    0.17   -0.65   -0.09    0.00    0.00       0.30   -2.79   -0.40
#  27    1.64   -0.54    0.03   -0.55   -0.08    0.00    0.00       0.49   -2.81   -0.40
#  28    1.55   -0.57    0.02   -0.57   -0.10    0.00    0.00       0.33   -2.65   -0.46
#  29  -10.78   -0.06    0.00    6.78    0.25    0.00    0.00      -3.81   16.13    0.59
#  30  -12.53   -0.02    0.00    4.26    0.11    0.00    0.00      -8.18   14.08    0.36
#  31  -10.82   -0.02    0.00    4.79    0.19    0.00    0.00      -5.86   14.93    0.59
#  32   -0.99   -0.31    0.08    1.48   -0.06    0.00    0.00       0.20    5.92   -0.24
#  33   -0.95   -0.22    0.05    0.70   -0.04    0.00    0.00      -0.46    4.56   -0.28
#  34   -9.00   -0.01    0.00    1.07    0.06    0.00    0.00      -7.88   10.68    0.59
#  35   -2.88   -0.01    0.00    0.77    0.04    0.00    0.00      -2.07   10.45    0.59
#  36   -0.65   -0.02    0.00    0.09   -0.01    0.00    0.00      -0.58    3.57   -0.28
#  37   -0.65   -0.04    0.00    0.22   -0.01    0.00    0.00      -0.48    4.65   -0.28
#  38   -6.81   -0.01    0.00    2.23    0.09    0.00    0.00      -4.50   15.03    0.59
#  39   -5.54   -0.01    0.00    1.44    0.04    0.00    0.00      -4.07   13.70    0.40
#  40   -9.65   -0.02    0.00    5.23    0.19    0.00    0.00      -4.25   15.88    0.59
#  41   -3.77   -0.39    0.21    1.24   -0.06    0.00    0.00      -2.77    4.81   -0.24
#  42   -3.72   -0.47    0.30    0.52   -0.06    0.00    0.00      -3.42    1.87   -0.21
#  43   -2.92   -0.11    0.00    0.14   -0.03    0.00    0.00      -2.92    1.17   -0.24
#  44   -2.58   -0.13    0.01    0.46   -0.04    0.00    0.00      -2.27    3.64   -0.28

@<TRIPOS>MOLECULE
          T536097        79
   44    45     0     0     0



@<TRIPOS>ATOM
      1 N1          1.7494    -3.9700    94.5895 N.pl3      1          -0.7931
      2 C1          1.0425    -4.9483    95.1533 C.cat      1           0.7450
      3 N2         -0.2346    -4.7474    95.4741 N.pl3      1          -0.7858
      4 H1         -0.6499    -3.8888    95.2973 H          1           0.4435
      5 H2         -0.7494    -5.4598    95.8847 H          1           0.4446
      6 N3          1.6288    -6.1604    95.4030 N.pl3      1          -0.6343
      7 C2          2.6638    -6.6211    94.5784 C.ar       1           0.0851
      8 C3          3.6474    -7.4525    95.0977 C.ar       1          -0.1326
      9 C4          4.6671    -7.9064    94.2852 C.ar       1          -0.1082
     10 C5          4.7093    -7.5318    92.9489 C.ar       1           0.1816
     11 N4          5.7440    -7.9929    92.1242 N.am       1          -0.6820
     12 C6          6.3168    -9.1886    92.3665 C.2        1           0.7096
     13 O1          5.9356    -9.8673    93.3006 O.2        1          -0.5496
     14 N5          7.3121    -9.6321    91.5732 N.am       1          -0.6791
     15 C7          7.7512    -8.8498    90.4966 C.ar       1           0.1828
     16 C8          7.6684    -9.3428    89.2012 C.ar       1          -0.1136
     17 C9          8.1011    -8.5721    88.1405 C.ar       1          -0.0826
     18 C10         8.6190    -7.3041    88.3693 C.ar       1           0.0788
     19 N6          9.0578    -6.5219    87.2926 N.pl3      1          -0.6330
     20 C11        10.0721    -5.6193    87.4707 C.cat      1           0.7448
     21 N7         11.0172    -5.8504    88.3806 N.pl3      1          -0.7930
     22 N8         10.1138    -4.5102    86.7341 N.pl3      1          -0.7864
     23 H3          9.4256    -4.3418    86.0715 H          1           0.4444
     24 H4         10.8324    -3.8708    86.8602 H          1           0.4432
     25 C12         8.7018    -6.8115    89.6647 C.ar       1          -0.1282
     26 C13         8.2638    -7.5798    90.7249 C.ar       1          -0.0931
     27 C14         3.7257    -6.7005    92.4295 C.ar       1          -0.0865
     28 C15         2.7027    -6.2512    93.2406 C.ar       1          -0.0856
     29 H5          1.3347    -3.1108    94.4145 H          1           0.4410
     30 H6          2.6800    -4.1156    94.3577 H          1           0.4406
     31 H7          1.3277    -6.7001    96.1506 H          1           0.4447
     32 H8          3.6148    -7.7436    96.1372 H          1           0.1415
     33 H9          5.4323    -8.5527    94.6893 H          1           0.1480
     34 H10         6.0481    -7.4516    91.3790 H          1           0.4190
     35 H11         7.7243   -10.4926    91.7474 H          1           0.4193
     36 H12         7.2660   -10.3290    89.0232 H          1           0.1484
     37 H13         8.0372    -8.9555    87.1328 H          1           0.1476
     38 H14         8.6429    -6.6197    86.4213 H          1           0.4443
     39 H15        10.9869    -6.6581    88.9171 H          1           0.4412
     40 H16        11.7358    -5.2111    88.5067 H          1           0.4411
     41 H17         9.1050    -5.8254    89.8427 H          1           0.1391
     42 H18         8.3238    -7.1947    91.7321 H          1           0.1533
     43 H19         3.7586    -6.4088    91.3903 H          1           0.1485
     44 H20         1.9350    -5.6085    92.8355 H          1           0.1459
@<TRIPOS>BOND
     1    1    2 1
     2    1   29 1
     3    1   30 1
     4    2    3 2
     5    2    6 1
     6    3    4 1
     7    3    5 1
     8    6    7 1
     9    6   31 1
    10    7   28 ar
    11    7    8 ar
    12    8    9 ar
    13    8   32 1
    14    9   10 ar
    15    9   33 1
    16   10   11 1
    17   10   27 ar
    18   11   12 am
    19   11   34 1
    20   12   13 2
    21   12   14 am
    22   14   15 1
    23   14   35 1
    24   15   26 ar
    25   15   16 ar
    26   16   17 ar
    27   16   36 1
    28   17   18 ar
    29   17   37 1
    30   18   19 1
    31   18   25 ar
    32   19   20 1
    33   19   38 1
    34   20   21 1
    35   20   22 2
    36   21   39 1
    37   21   40 1
    38   22   23 1
    39   22   24 1
    40   25   26 ar
    41   25   41 1
    42   26   42 1
    43   27   28 ar
    44   27   43 1
    45   28   44 1
##########                 Name:              T538265
##########          Protonation:                   13
##########               SMILES:   [NH+]=C(\NCCCCCC/[NH+]=C(\NC(=[NH2+])Nc2ccc(cc2)Cl)/N(CCCC)CCCC)/N(CCCC)CCCC
##########            Long Name:   -chlorophenyl)carbamimidoyl]iminio-(dibutylamino)methyl]amino]hexyl]ammonium
##########          FlexRecCode: 1
##########               Number:                  265
##########   Ligand Source File: /raidb/db2/rgc/tcams/tcams-0001759.db2.gz
##########           GlobalRank: 166
##########                 Rank:                    1
##########               Setnum:                   47
##########             Matchnum:                 2974
##########                Cloud:                    1
##########        Electrostatic:           -54.173225
##########        Van der Waals:           -22.407936
##########  Ligand Polar Desolv:            15.715426
########## Ligand Apolar Desolv:            -5.997826
##########      Internal Energy:             0.000000
##########      Receptor Energy: 0.0
########## Receptor Desolvation:             0.000000
########## Receptor Hydrophobic:             0.000000
##########         Total Energy: -66.86
##########        Ligand Charge:             3.000000
##########            Arbitrary:    +999.9990
##########     heavy atom count:   50
##########           pose count:    1
##########        Ligand Energy:             0.000000
# num electro vdwattr vdwrepu polsolv apolsol rdesolv rhydroe totalscore fullpol fullapo
#   1    4.59   -1.84    0.76   -2.59   -0.09    0.00    0.00       0.82   -5.32   -0.19
#   2    3.12   -1.02    0.14   -1.91   -0.10    0.00    0.00       0.23   -4.55   -0.25
#   3    2.71   -0.57    0.03   -1.89   -0.07    0.00    0.00       0.21   -6.00   -0.23
#   4   -1.22   -0.67    0.12    1.10   -0.09    0.00    0.00      -0.77    4.16   -0.35
#   5    6.28   -0.55    0.04   -5.88    0.20    0.00    0.00       0.09  -31.72    1.08
#   6   -0.18   -0.34    0.04    0.58   -0.07    0.00    0.00       0.03    3.43   -0.39
#   7    0.31   -0.40    0.05   -1.57   -0.02    0.00    0.00      -1.63   -8.35   -0.13
#   8    0.17   -0.33    0.02   -0.92   -0.04    0.00    0.00      -1.12   -4.74   -0.22
#   9    0.23   -0.49    0.05   -1.32   -0.04    0.00    0.00      -1.57   -5.76   -0.19
#  10   -7.95   -0.39    0.01    6.37   -0.62    0.00    0.00      -2.59   41.03   -4.02
#  11   13.05   -0.55    0.03   -7.11    0.17    0.00    0.00       5.58  -35.96    0.85
#  12  -27.23   -1.86    0.99   12.61   -1.22    0.00    0.00     -16.71   43.11   -4.16
#  13   30.09   -3.76    3.51  -14.75    0.23    0.00    0.00      15.32  -40.46    0.63
#  14  -11.09   -0.03    0.00    7.33    0.17    0.00    0.00      -3.61   26.47    0.60
#  15  -27.40   -0.25    0.14   11.46    0.03    0.00    0.00     -16.02   24.05    0.06
#  16   27.25   -3.88    7.63  -11.87    0.41    0.00    0.00      19.54  -30.35    1.05
#  17   -2.05   -1.32    0.30    2.67   -0.25    0.00    0.00      -0.65    6.94   -0.64
#  18    4.66   -1.74    0.41   -2.19   -0.15    0.00    0.00       0.99   -5.14   -0.36
#  19    1.63   -1.56    0.28   -1.50   -0.19    0.00    0.00      -1.34   -3.54   -0.46
#  20    0.22   -1.39    0.20   -1.09   -0.13    0.00    0.00      -2.19   -2.62   -0.30
#  21    0.19   -4.88    2.40   -2.32   -0.52    0.00    0.00      -5.14   -4.46   -0.99
#  22    1.15   -1.26    0.11   -1.64   -0.18    0.00    0.00      -1.81   -4.27   -0.46
#  23    1.75   -0.90    0.04   -1.19   -0.15    0.00    0.00      -0.44   -3.70   -0.46
#  24    2.28   -0.36    0.02   -3.82    0.21    0.00    0.00      -1.68  -29.61    1.60
#  25   -0.74    0.00    0.00    1.16    0.02    0.00    0.00       0.43   23.73    0.38
#  26   -0.08   -0.50    0.15    0.38   -0.06    0.00    0.00      -0.11    2.46   -0.39
#  27    0.65   -0.16    0.01   -0.63   -0.02    0.00    0.00      -0.15   -6.73   -0.22
#  28    0.47   -0.18    0.01   -0.54   -0.02    0.00    0.00      -0.27   -5.33   -0.22
#  29    0.59   -0.09    0.00   -0.29   -0.01    0.00    0.00       0.20   -5.02   -0.22
#  30    0.52   -0.10    0.00   -0.31   -0.01    0.00    0.00       0.10   -5.11   -0.22
#  31   -0.17   -0.06    0.00    0.11   -0.02    0.00    0.00      -0.14    2.48   -0.42
#  32    2.23   -0.14    0.00   -1.31    0.10    0.00    0.00       0.87  -21.85    1.59
#  33   -1.29   -0.16    0.00    1.62   -0.22    0.00    0.00      -0.05   27.33   -3.80
#  34    1.08   -0.24    0.00   -1.80    0.09    0.00    0.00      -0.88  -20.72    0.99
#  35   -0.70    0.00    0.00    0.63    0.02    0.00    0.00      -0.06   15.49    0.41
#  36   -5.29   -0.45    0.02    3.84   -0.85    0.00    0.00      -2.74   21.27   -4.73
#  37   10.14   -0.46    0.02   -4.54    0.18    0.00    0.00       5.34  -26.40    1.05
#  38    7.77   -0.93    0.06   -7.56    0.36    0.00    0.00      -0.30  -21.86    1.05
#  39   -0.70   -1.10    0.13    1.47   -0.21    0.00    0.00      -0.40    4.25   -0.60
#  40    0.04   -1.89    1.13   -1.10   -0.13    0.00    0.00      -1.94   -3.22   -0.37
#  41   -0.08   -2.67    2.88   -0.69   -0.13    0.00    0.00      -0.69   -2.37   -0.46
#  42    0.00   -1.44    0.63   -0.44   -0.08    0.00    0.00      -1.32   -1.58   -0.30
#  43    0.00   -1.35    0.19   -0.54   -0.23    0.00    0.00      -1.93   -2.30   -0.99
#  44    0.42   -1.71    0.78   -0.87   -0.15    0.00    0.00      -1.53   -2.64   -0.46
#  45    1.21   -1.80    0.87   -0.89   -0.16    0.00    0.00      -0.76   -2.58   -0.46
#  46    0.83   -0.11    0.00   -1.14    0.05    0.00    0.00      -0.37  -23.16    1.02
#  47   -0.16   -0.08    0.00    0.30   -0.02    0.00    0.00       0.04    4.92   -0.38
#  48    0.22   -0.18    0.01   -0.43   -0.02    0.00    0.00      -0.41   -4.36   -0.24
#  49    0.28   -0.62    0.21   -0.66   -0.05    0.00    0.00      -0.84   -3.24   -0.25
#  50    0.41   -1.23    0.48   -1.30   -0.06    0.00    0.00      -1.70   -3.92   -0.19
#  51   -0.10   -0.07    0.00    0.18   -0.02    0.00    0.00       0.00    4.17   -0.43
#  52    0.04   -0.08    0.00   -0.19   -0.01    0.00    0.00      -0.24   -4.00   -0.22
#  53   -0.01   -0.07    0.00   -0.18   -0.01    0.00    0.00      -0.26   -3.72   -0.25
#  54   -0.07   -0.16    0.01   -0.43   -0.02    0.00    0.00      -0.67   -4.15   -0.19
#  55   -1.43   -0.73    0.29    1.16   -0.14    0.00    0.00      -0.84    2.37   -0.28
#  56   -1.76   -0.42    0.14   -0.12   -0.10    0.00    0.00      -2.26   -0.34   -0.28
#  57   -2.65   -1.48    3.72    0.35   -0.13    0.00    0.00      -0.19    0.78   -0.28
#  58   -1.76   -0.39    0.06    0.47   -0.09    0.00    0.00      -1.71    1.41   -0.28
#  59   -1.84   -0.38    0.11    1.00   -0.09    0.00    0.00      -1.20    3.20   -0.28
#  60   -1.15   -0.16    0.01    0.86   -0.04    0.00    0.00      -0.47    5.00   -0.21
#  61   -1.51   -0.17    0.01    0.44   -0.04    0.00    0.00      -1.27    2.77   -0.27
#  62   -1.72   -0.71    0.84    1.54   -0.05    0.00    0.00      -0.09    5.66   -0.17
#  63   -2.28   -0.15    0.01    1.19   -0.04    0.00    0.00      -1.27    7.83   -0.28
#  64   -0.19   -0.05    0.00    0.51   -0.01    0.00    0.00       0.25    9.41   -0.20
#  65   -0.45   -0.16    0.03    0.73   -0.04    0.00    0.00       0.11    5.16   -0.27
#  66   -0.20   -0.32    0.17    1.51   -0.05    0.00    0.00       1.11    6.69   -0.20
#  67   -0.38   -0.05    0.00    0.33   -0.01    0.00    0.00      -0.12    6.41   -0.27
#  68   -0.11   -0.05    0.00    0.07   -0.01    0.00    0.00      -0.09    1.58   -0.28
#  69   -0.08   -0.14    0.01    0.50   -0.04    0.00    0.00       0.25    3.14   -0.24
#  70   -0.07   -0.16    0.02    0.41   -0.05    0.00    0.00       0.15    2.39   -0.28
#  71   -0.09   -0.42    0.21    0.32   -0.07    0.00    0.00      -0.05    1.30   -0.28
#  72   -0.12   -0.07    0.00   -0.04   -0.02    0.00    0.00      -0.25   -0.65   -0.28
#  73   -7.42   -0.01    0.00    2.46    0.03    0.00    0.00      -4.93   26.97    0.32
#  74  -29.06   -0.16    0.06   11.32    0.26    0.00    0.00     -17.59   25.26    0.59
#  75   -5.92   -0.71    0.55    5.27   -0.11    0.00    0.00      -0.92   11.49   -0.24
#  76   -3.38   -0.48    0.16    2.01   -0.10    0.00    0.00      -1.79    5.65   -0.28
#  77   -1.94   -0.35    0.05    1.19   -0.10    0.00    0.00      -1.14    3.42   -0.28
#  78   -3.38   -0.14    0.00    0.89   -0.03    0.00    0.00      -2.65    7.73   -0.28
#  79   -0.28   -0.19    0.05    1.18   -0.04    0.00    0.00       0.73    8.72   -0.27
#  80    0.05   -0.48    0.65    1.34   -0.05    0.00    0.00       1.52    8.31   -0.28
#  81   -0.15   -0.03    0.00    0.13   -0.01    0.00    0.00      -0.06    3.97   -0.28
#  82   -1.00   -0.04    0.00    0.15   -0.01    0.00    0.00      -0.90    3.88   -0.28
#  83   -0.50   -0.07    0.00    0.21   -0.02    0.00    0.00      -0.37    3.36   -0.28
#  84   -0.06   -0.08    0.01    0.27   -0.02    0.00    0.00       0.11    3.26   -0.28
#  85   -0.23   -0.01    0.00    0.06   -0.01    0.00    0.00      -0.19    2.76   -0.28
#  86   -0.64   -0.03    0.00    0.09   -0.01    0.00    0.00      -0.59    2.88   -0.28
#  87   -0.43   -0.05    0.00    0.12   -0.01    0.00    0.00      -0.37    2.82   -0.28
#  88   -0.22   -0.03    0.00    0.08   -0.01    0.00    0.00      -0.18    2.77   -0.28
#  89   -0.12   -0.02    0.00    0.10    0.00    0.00    0.00      -0.04    4.42   -0.22
#  90   -0.13   -0.01    0.00    0.10    0.00    0.00    0.00      -0.05    4.75   -0.21
#  91   -3.08    0.00    0.00    0.54    0.01    0.00    0.00      -2.53   16.05    0.39
#  92   -7.30   -0.01    0.00    2.22    0.10    0.00    0.00      -4.99   13.06    0.59
#  93   -6.79   -0.03    0.00    4.94    0.20    0.00    0.00      -1.68   14.58    0.59
#  94    0.44   -0.43    0.26    1.78   -0.09    0.00    0.00       1.97    5.68   -0.28
#  95    0.29   -1.37    4.17    1.08   -0.09    0.00    0.00       4.08    3.43   -0.28
#  96   -0.40   -0.35    0.11    0.80   -0.08    0.00    0.00       0.07    2.68   -0.28
#  97   -3.57   -0.91    2.33    1.48   -0.09    0.00    0.00      -0.75    4.88   -0.28
#  98   -0.09   -0.01    0.00    0.09   -0.01    0.00    0.00      -0.02    4.64   -0.28
#  99   -0.11   -0.02    0.00    0.12   -0.01    0.00    0.00      -0.02    4.42   -0.22
# 100   -0.08   -0.04    0.00    0.06   -0.01    0.00    0.00      -0.06    1.90   -0.28
# 101   -0.11   -0.06    0.00    0.11   -0.02    0.00    0.00      -0.08    1.90   -0.28
# 102   -0.19   -0.46    0.70    0.31   -0.05    0.00    0.00       0.31    1.92   -0.28
# 103   -0.14   -0.11    0.01    0.26   -0.03    0.00    0.00      -0.02    2.23   -0.28
# 104   -0.19   -0.84    0.60    0.42   -0.12    0.00    0.00      -0.12    1.02   -0.28
# 105   -0.13   -0.22    0.02    0.21   -0.07    0.00    0.00      -0.20    0.80   -0.28
# 106   -0.16   -0.35    0.11    0.09   -0.08    0.00    0.00      -0.38    0.34   -0.28
# 107   -0.08   -0.02    0.00    0.07   -0.01    0.00    0.00      -0.03    3.24   -0.28
# 108   -0.08   -0.03    0.00    0.09   -0.01    0.00    0.00      -0.03    3.00   -0.28
# 109   -0.01   -0.03    0.00    0.09   -0.01    0.00    0.00       0.04    3.08   -0.24
# 110   -0.01   -0.02    0.00    0.09   -0.01    0.00    0.00       0.05    3.54   -0.28
# 111    0.00   -0.01    0.00    0.02    0.00    0.00    0.00       0.00    1.23   -0.28
# 112    0.00   -0.02    0.00    0.03   -0.01    0.00    0.00       0.00    1.18   -0.28
# 113    0.02   -0.03    0.00    0.05   -0.01    0.00    0.00       0.03    1.85   -0.28
# 114    0.04   -0.08    0.00    0.15   -0.02    0.00    0.00       0.10    1.81   -0.28
# 115    0.03   -0.07    0.01    0.00   -0.02    0.00    0.00      -0.05   -0.05   -0.28

@<TRIPOS>MOLECULE
          T538265        13
  115   116     0     0     0



@<TRIPOS>ATOM
      1 C1         -1.5544    -4.3648    94.7860 C.3        1          -0.1595
      2 C2         -0.1513    -4.2198    94.1934 C.3        1          -0.1258
      3 C3          0.1008    -5.3532    93.1969 C.3        1          -0.1424
      4 C4          1.5038    -5.2084    92.6041 C.3        1           0.0746
      5 N1          1.7453    -6.2935    91.6500 N.pl3      1          -0.6209
      6 C5          0.8797    -6.4443    90.4778 C.3        1           0.0616
      7 C6          1.7201    -6.3255    89.2047 C.3        1          -0.1799
      8 C7          0.8161    -6.4830    87.9804 C.3        1          -0.1253
      9 C8          1.6563    -6.3641    86.7073 C.3        1          -0.1653
     10 C9          2.7842    -7.1702    91.8547 C.cat      1           0.7337
     11 N2          3.9223    -6.7498    92.5108 N.pl3      1          -0.6671
     12 C10         4.3220    -5.4322    92.4232 C.cat      1           0.7523
     13 N3          4.0519    -4.7394    91.3539 N.pl3      1          -0.7633
     14 H1          3.5695    -5.1497    90.6191 H          1           0.4593
     15 H2          4.3328    -3.8130    91.2922 H          1           0.4512
     16 N4          5.0062    -4.8500    93.4657 N.pl3      1          -0.5752
     17 C11         5.2965    -5.5942    94.6145 C.ar       1           0.0623
     18 C12         6.6155    -5.7830    95.0062 C.ar       1          -0.1434
     19 C13         6.8991    -6.5181    96.1405 C.ar       1          -0.0750
     20 C14         5.8706    -7.0667    96.8862 C.ar       1          -0.0139
     21 Cl1         6.2307    -7.9901    98.3115 Cl         1          -0.0148
     22 C15         4.5555    -6.8801    96.4982 C.ar       1          -0.0735
     23 C16         4.2660    -6.1407    95.3681 C.ar       1          -0.0794
     24 N5          2.6939    -8.3980    91.4291 N.pl3      1          -0.5749
     25 H3          1.8935    -8.6937    90.9677 H          1           0.4530
     26 C17         3.8009    -9.3322    91.6473 C.3        1           0.0536
     27 C18         4.7673    -9.2633    90.4630 C.3        1          -0.1408
     28 C19         5.9235   -10.2391    90.6908 C.3        1          -0.1172
     29 C20         6.8898   -10.1703    89.5066 C.3        1          -0.1178
     30 C21         8.0461   -11.1461    89.7345 C.3        1          -0.1349
     31 C22         9.0124   -11.0773    88.5503 C.3        1           0.0786
     32 N6          9.5392    -9.7157    88.4285 N.pl3      1          -0.6060
     33 C23        10.7907    -9.5103    87.9185 C.cat      1           0.7662
     34 N7         11.5031    -8.4733    88.3163 N.pl3      1          -0.5882
     35 H4         12.4489    -8.4255    88.1067 H          1           0.4503
     36 C24        10.9162    -7.4799    89.0140 C.2        1           0.6321
     37 N8          9.6388    -7.5442    89.2972 N.2        1          -0.7909
     38 N9         11.6621    -6.3941    89.4306 N.pl3      1          -0.6787
     39 C25        13.0263    -6.3252    89.1282 C.ar       1           0.0933
     40 C26        13.9607    -6.8659    90.0020 C.ar       1          -0.1377
     41 C27        15.3067    -6.7969    89.7009 C.ar       1          -0.0854
     42 C28        15.7249    -6.1894    88.5300 C.ar       1          -0.0251
     43 Cl2        17.4176    -6.1044    88.1546 Cl         1          -0.0337
     44 C29        14.7960    -5.6497    87.6575 C.ar       1          -0.0849
     45 C30        13.4484    -5.7211    87.9511 C.ar       1          -0.0969
     46 N10        11.3043   -10.3791    86.9967 N.pl3      1          -0.6615
     47 C31        10.4083   -11.0890    86.0805 C.3        1           0.1257
     48 C32        10.7660   -10.7296    84.6368 C.3        1          -0.1452
     49 C33        10.6123    -9.2209    84.4337 C.3        1          -0.1210
     50 C34        10.9699    -8.8617    82.9903 C.3        1          -0.1576
     51 C35        12.7506   -10.6004    86.9250 C.3        1           0.1164
     52 C36        13.2503   -11.1452    88.2646 C.3        1          -0.1388
     53 C37        14.7608   -11.3764    88.1898 C.3        1          -0.1267
     54 C38        15.2605   -11.9210    89.5294 C.3        1          -0.1538
     55 H5         -1.7341    -3.5574    95.4960 H          1           0.0552
     56 H6         -2.2935    -4.3164    93.9863 H          1           0.0705
     57 H7         -1.6354    -5.3235    95.2982 H          1           0.0621
     58 H8         -0.0705    -3.2611    93.6812 H          1           0.0786
     59 H9          0.5876    -4.2681    94.9931 H          1           0.0702
     60 H10         0.0199    -6.3120    93.7091 H          1           0.0581
     61 H11        -0.6382    -5.3050    92.3972 H          1           0.0931
     62 H12         1.5847    -4.2495    92.0921 H          1           0.1346
     63 H13         2.2430    -5.2565    93.4039 H          1           0.1052
     64 H14         0.3980    -7.4217    90.5053 H          1           0.1075
     65 H15         0.1189    -5.6639    90.4851 H          1           0.1325
     66 H16         2.2018    -5.3482    89.1773 H          1           0.0913
     67 H17         2.4809    -7.1061    89.1973 H          1           0.1117
     68 H18         0.3341    -7.4603    88.0078 H          1           0.0852
     69 H19         0.0553    -5.7024    87.9877 H          1           0.0742
     70 H20         1.0122    -6.4764    85.8351 H          1           0.0580
     71 H21         2.1381    -5.3868    86.6799 H          1           0.0644
     72 H22         2.4171    -7.1447    86.7002 H          1           0.0741
     73 H23         4.4416    -7.3804    93.0338 H          1           0.4639
     74 H24         5.2872    -3.9236    93.4041 H          1           0.4621
     75 H25         7.4186    -5.3557    94.4242 H          1           0.1390
     76 H26         7.9247    -6.6652    96.4455 H          1           0.1607
     77 H27         3.7546    -7.3096    97.0817 H          1           0.1627
     78 H28         3.2393    -5.9913    95.0684 H          1           0.1569
     79 H29         4.3282    -9.0634    92.5626 H          1           0.1169
     80 H30         3.4090   -10.3452    91.7379 H          1           0.1184
     81 H31         4.2400    -9.5322    89.5477 H          1           0.0914
     82 H32         5.1593    -8.2504    90.3723 H          1           0.0927
     83 H33         6.4508    -9.9703    91.6063 H          1           0.0782
     84 H34         5.5314   -11.2521    90.7816 H          1           0.0765
     85 H35         6.3626   -10.4391    88.5913 H          1           0.0759
     86 H36         7.2819    -9.1573    89.4160 H          1           0.0768
     87 H37         8.5732   -10.8773    90.6499 H          1           0.0840
     88 H38         7.6540   -12.1591    89.8251 H          1           0.0798
     89 H39         9.8360   -11.7725    88.7125 H          1           0.0992
     90 H40         8.4851   -11.3461    87.6349 H          1           0.0984
     91 H41         9.0000    -8.9600    88.7097 H          1           0.4406
     92 H42         9.2320    -6.8672    89.8603 H          1           0.3805
     93 H43        11.2400    -5.6793    89.9325 H          1           0.4365
     94 H44        13.6349    -7.3395    90.9163 H          1           0.1369
     95 H45        16.0338    -7.2171    90.3801 H          1           0.1504
     96 H46        15.1251    -5.1758    86.7446 H          1           0.1512
     97 H47        12.7236    -5.3035    87.2679 H          1           0.1438
     98 H48        10.5177   -12.1638    86.2251 H          1           0.1067
     99 H49         9.3774   -10.7984    86.2825 H          1           0.0808
    100 H50        11.7969   -11.0202    84.4349 H          1           0.0626
    101 H51        10.0995   -11.2579    83.9552 H          1           0.0798
    102 H52         9.5812    -8.9304    84.6358 H          1           0.0702
    103 H53        11.2789    -8.6929    85.1155 H          1           0.0630
    104 H54        10.8605    -7.7870    82.8456 H          1           0.0545
    105 H55        12.0009    -9.1524    82.7882 H          1           0.0595
    106 H56        10.3033    -9.3899    82.3085 H          1           0.0636
    107 H57        12.9694   -11.3200    86.1359 H          1           0.1072
    108 H58        13.2521    -9.6578    86.7063 H          1           0.0817
    109 H59        13.0315   -10.4257    89.0537 H          1           0.0614
    110 H60        12.7488   -12.0879    88.4834 H          1           0.0758
    111 H61        14.9796   -12.0959    87.4007 H          1           0.0730
    112 H62        15.2623   -10.4336    87.9710 H          1           0.0676
    113 H63        16.3366   -12.0858    89.4761 H          1           0.0515
    114 H64        15.0417   -11.2015    90.3185 H          1           0.0553
    115 H65        14.7591   -12.8638    89.7481 H          1           0.0644
@<TRIPOS>BOND
     1    1    2 1
     2    1   55 1
     3    1   56 1
     4    1   57 1
     5    2    3 1
     6    2   58 1
     7    2   59 1
     8    3    4 1
     9    3   60 1
    10    3   61 1
    11    4    5 1
    12    4   62 1
    13    4   63 1
    14    5    6 1
    15    5   10 1
    16    6    7 1
    17    6   64 1
    18    6   65 1
    19    7    8 1
    20    7   66 1
    21    7   67 1
    22    8    9 1
    23    8   68 1
    24    8   69 1
    25    9   70 1
    26    9   71 1
    27    9   72 1
    28   10   11 1
    29   10   24 2
    30   11   12 1
    31   11   73 1
    32   12   13 2
    33   12   16 1
    34   13   14 1
    35   13   15 1
    36   16   17 1
    37   16   74 1
    38   17   23 ar
    39   17   18 ar
    40   18   19 ar
    41   18   75 1
    42   19   20 ar
    43   19   76 1
    44   20   21 1
    45   20   22 ar
    46   22   23 ar
    47   22   77 1
    48   23   78 1
    49   24   25 1
    50   24   26 1
    51   26   27 1
    52   26   79 1
    53   26   80 1
    54   27   28 1
    55   27   81 1
    56   27   82 1
    57   28   29 1
    58   28   83 1
    59   28   84 1
    60   29   30 1
    61   29   85 1
    62   29   86 1
    63   30   31 1
    64   30   87 1
    65   30   88 1
    66   31   32 1
    67   31   89 1
    68   31   90 1
    69   32   33 1
    70   32   91 1
    71   33   34 2
    72   33   46 1
    73   34   35 1
    74   34   36 1
    75   36   37 2
    76   36   38 1
    77   37   92 1
    78   38   39 1
    79   38   93 1
    80   39   45 ar
    81   39   40 ar
    82   40   41 ar
    83   40   94 1
    84   41   42 ar
    85   41   95 1
    86   42   43 1
    87   42   44 ar
    88   44   45 ar
    89   44   96 1
    90   45   97 1
    91   46   47 1
    92   46   51 1
    93   47   48 1
    94   47   98 1
    95   47   99 1
    96   48   49 1
    97   48  100 1
    98   48  101 1
    99   49   50 1
   100   49  102 1
   101   49  103 1
   102   50  104 1
   103   50  105 1
   104   50  106 1
   105   51   52 1
   106   51  107 1
   107   51  108 1
   108   52   53 1
   109   52  109 1
   110   52  110 1
   111   53   54 1
   112   53  111 1
   113   53  112 1
   114   54  113 1
   115   54  114 1
   116   54  115 1
##########                 Name:              T531165
##########          Protonation:                   94
##########               SMILES:   Cc1ccc(cc1)/C=C/C(=O)NCCCCC[NH+]2CCCN(CC2)C(=O)Nc3ccc(c(c3)Cl)Cl
##########            Long Name:   [[(E)-3-(p-tolyl)prop-2-enoyl]amino]pentyl]-1,4-diazepan-4-ium-1-carboxamide
##########          FlexRecCode: 1
##########               Number:                   94
##########   Ligand Source File: /raidb/db2/rgc/tcams/tcams-0000787.db2.gz
##########           GlobalRank: 168
##########                 Rank:                    1
##########               Setnum:                  259
##########             Matchnum:                 2310
##########                Cloud:                    1
##########        Electrostatic:           -38.048801
##########        Van der Waals:           -32.717632
##########  Ligand Polar Desolv:             8.835752
########## Ligand Apolar Desolv:            -4.915852
##########      Internal Energy:             0.000000
##########      Receptor Energy: 0.0
########## Receptor Desolvation:             0.000000
########## Receptor Hydrophobic:             0.000000
##########         Total Energy: -66.85
##########        Ligand Charge:             1.000000
##########            Arbitrary:    +999.9990
##########     heavy atom count:   35
##########           pose count:    1
##########        Ligand Energy:             0.000000
# num electro vdwattr vdwrepu polsolv apolsol rdesolv rhydroe totalscore fullpol fullapo
#   1    0.12   -0.94    0.30   -0.22   -0.06    0.00    0.00      -0.80   -0.80   -0.20
#   2    0.06   -1.14    0.37   -0.12   -0.09    0.00    0.00      -0.92   -0.52   -0.41
#   3    0.15   -0.99    0.40   -0.13   -0.09    0.00    0.00      -0.66   -0.64   -0.45
#   4    0.10   -0.45    0.03   -0.08   -0.07    0.00    0.00      -0.48   -0.50   -0.45
#   5    0.10   -0.34    0.01   -0.07   -0.06    0.00    0.00      -0.36   -0.53   -0.41
#   6    0.00   -0.25    0.00   -0.02   -0.04    0.00    0.00      -0.32   -0.25   -0.44
#   7    0.32   -0.33    0.01   -0.20   -0.06    0.00    0.00      -0.26   -1.56   -0.43
#   8   -0.90   -0.38    0.02    0.44   -0.09    0.00    0.00      -0.90    3.22   -0.65
#   9    3.31   -0.38    0.02   -0.03    0.06    0.00    0.00       2.98   -0.17    0.39
#  10    1.50   -0.48    0.02   -1.58    0.44    0.00    0.00      -0.10   -8.31    2.33
#  11   -0.88   -0.47    0.05    0.30   -0.10    0.00    0.00      -1.09    1.32   -0.42
#  12    2.24   -0.62    0.06   -0.75   -0.07    0.00    0.00       0.88   -2.39   -0.22
#  13    3.04   -0.87    0.12   -1.13   -0.08    0.00    0.00       1.07   -3.03   -0.22
#  14    3.54   -0.63    0.04   -1.47   -0.07    0.00    0.00       1.41   -4.43   -0.21
#  15    0.47   -0.73    0.06   -0.01   -0.11    0.00    0.00      -0.32   -0.02   -0.34
#  16    9.82   -0.79    0.04   -4.09    0.07    0.00    0.00       5.06  -11.86    0.19
#  17  -10.25   -0.01    0.00    3.09    0.08    0.00    0.00      -7.10   17.73    0.46
#  18    0.33   -1.43    0.35    0.10   -0.18    0.00    0.00      -0.84    0.22   -0.39
#  19    5.76   -2.00    0.75   -2.09   -0.13    0.00    0.00       2.29   -3.87   -0.24
#  20   -4.05   -1.41    0.38    1.12   -0.22    0.00    0.00      -4.18    2.31   -0.46
#  21   15.54   -0.98    0.07   -4.64    0.48    0.00    0.00      10.47  -13.90    1.44
#  22   -2.08   -0.51    0.05    0.42   -0.10    0.00    0.00      -2.22    1.74   -0.40
#  23    1.18   -0.40    0.02   -0.33   -0.08    0.00    0.00       0.38   -1.56   -0.37
#  24  -10.80   -1.00    0.06    4.08   -0.71    0.00    0.00      -8.37   11.47   -1.99
#  25    3.58   -1.35    0.30   -2.18    0.11    0.00    0.00       0.46   -6.32    0.32
#  26   11.20   -1.43    0.16   -5.00    0.69    0.00    0.00       5.62  -11.95    1.65
#  27   -2.25   -1.48    0.17    1.21   -0.31    0.00    0.00      -2.65    2.65   -0.67
#  28    1.76   -2.11    0.39   -0.62   -0.22    0.00    0.00      -0.80   -1.10   -0.40
#  29    1.23   -2.95    1.74   -0.37   -0.26    0.00    0.00      -0.60   -0.66   -0.46
#  30    0.41   -2.29    1.24   -0.30   -0.16    0.00    0.00      -1.10   -0.56   -0.30
#  31    0.18   -6.49    3.72   -0.25   -0.59    0.00    0.00      -3.43   -0.40   -0.95
#  32    0.09   -1.48    0.24   -0.14   -0.14    0.00    0.00      -1.42   -0.30   -0.30
#  33    0.25   -2.98    0.50   -0.24   -0.48    0.00    0.00      -2.93   -0.47   -0.95
#  34    1.10   -1.30    0.14   -0.48   -0.16    0.00    0.00      -0.71   -1.34   -0.45
#  35    0.08   -0.60    0.11   -0.13   -0.08    0.00    0.00      -0.61   -0.72   -0.44
#  36    0.10   -1.17    0.61   -0.19   -0.09    0.00    0.00      -0.74   -0.94   -0.45
#  37   -0.08   -0.35    0.14    0.14   -0.07    0.00    0.00      -0.22    0.56   -0.28
#  38   -0.05   -0.09    0.00    0.05   -0.03    0.00    0.00      -0.12    0.45   -0.28
#  39   -0.07   -0.52    0.20    0.22   -0.09    0.00    0.00      -0.25    0.66   -0.28
#  40   -0.18   -0.24    0.11    0.10   -0.04    0.00    0.00      -0.25    0.70   -0.28
#  41   -0.18   -0.07    0.00    0.04   -0.02    0.00    0.00      -0.23    0.59   -0.28
#  42   -0.18   -0.04    0.00    0.01   -0.01    0.00    0.00      -0.22    0.16   -0.26
#  43   -0.19   -0.09    0.00    0.24   -0.02    0.00    0.00      -0.06    2.44   -0.21
#  44   -0.88   -0.01    0.00    0.83    0.06    0.00    0.00       0.01    7.18    0.56
#  45   -0.31   -0.31    0.15    0.06   -0.06    0.00    0.00      -0.47    0.29   -0.28
#  46   -0.55   -0.08    0.00    0.02   -0.02    0.00    0.00      -0.63    0.30   -0.28
#  47   -0.96   -0.24    0.05    0.38   -0.05    0.00    0.00      -0.81    2.14   -0.28
#  48   -1.40   -0.24    0.05    0.46   -0.06    0.00    0.00      -1.19    2.19   -0.28
#  49   -2.07   -0.31    0.04    0.42   -0.09    0.00    0.00      -2.00    1.33   -0.28
#  50   -2.83   -0.55    0.33    0.52   -0.10    0.00    0.00      -2.63    1.45   -0.28
#  51   -2.53   -0.27    0.04    1.30   -0.09    0.00    0.00      -1.56    4.14   -0.28
#  52   -1.59   -0.13    0.00    0.52   -0.03    0.00    0.00      -1.22    4.07   -0.22
#  53   -2.74   -0.20    0.02    0.79   -0.05    0.00    0.00      -2.18    4.12   -0.28
#  54   -3.57   -0.43    0.09    1.75   -0.09    0.00    0.00      -2.23    5.36   -0.26
#  55   -7.01   -1.01    2.05    0.84   -0.09    0.00    0.00      -5.21    2.36   -0.24
#  56   -5.33   -0.65    0.21    2.80   -0.12    0.00    0.00      -3.10    5.72   -0.25
#  57   -5.15   -1.02    0.57    1.73   -0.16    0.00    0.00      -4.04    2.96   -0.28
#  58   -2.69   -1.05    1.30    2.11   -0.10    0.00    0.00      -0.44    5.08   -0.25
#  59   -5.82   -1.12    3.12    0.14   -0.11    0.00    0.00      -3.79    0.30   -0.24
#  60   -2.59   -0.49    0.16    0.66   -0.14    0.00    0.00      -2.39    1.36   -0.28
#  61   -4.28   -0.33    0.19    0.70   -0.04    0.00    0.00      -3.75    3.69   -0.22
#  62   -1.57   -0.12    0.01    0.61   -0.03    0.00    0.00      -1.10    5.62   -0.28
#  63   -1.54   -0.14    0.01    0.98   -0.02    0.00    0.00      -0.70    7.97   -0.20
#  64   -2.54   -0.10    0.00    0.38   -0.03    0.00    0.00      -2.28    3.82   -0.28
#  65   -7.79   -0.03    0.00    3.76    0.15    0.00    0.00      -3.91   10.86    0.44
#  66   -3.12   -0.51    0.07    0.56   -0.12    0.00    0.00      -3.12    1.01   -0.22
#  67   -3.45   -1.05    1.10    0.53   -0.16    0.00    0.00      -3.01    0.95   -0.28
#  68   -0.98   -0.20    0.01    0.73   -0.06    0.00    0.00      -0.50    3.66   -0.28
#  69   -0.12   -0.10    0.01    0.25   -0.03    0.00    0.00       0.02    2.05   -0.21
#  70   -0.09   -0.34    0.25    0.28   -0.05    0.00    0.00       0.05    1.49   -0.28

@<TRIPOS>MOLECULE
          T531165        94
   70    72     0     0     0



@<TRIPOS>ATOM
      1 C1         -0.5007    -8.4215    82.3803 C.3        1          -0.1223
      2 C2         -0.4156    -8.2672    83.8770 C.ar       1          -0.0659
      3 C3          0.7577    -7.8172    84.4570 C.ar       1          -0.1239
      4 C4          0.8433    -7.6729    85.8258 C.ar       1          -0.0852
      5 C5         -0.2593    -7.9827    86.6280 C.ar       1          -0.0946
      6 C6         -0.1765    -7.8310    88.0899 C.2        1           0.0016
      7 C7          0.7690    -7.0381    88.6327 C.2        1          -0.2328
      8 C8          0.8514    -6.8872    90.0868 C.2        1           0.5509
      9 O1          1.9252    -6.6689    90.6161 O.2        1          -0.5416
     10 N1         -0.2621    -6.9901    90.8393 N.am       1          -0.7333
     11 C9         -0.1796    -6.8392    92.2941 C.3        1           0.1177
     12 C10        -0.3730    -5.3677    92.6659 C.3        1          -0.1321
     13 C11        -0.2868    -5.2099    94.1853 C.3        1          -0.1154
     14 C12         1.0852    -5.6823    94.6702 C.3        1          -0.1491
     15 C13         2.1779    -4.8410    94.0073 C.3        1          -0.0194
     16 N2          3.4952    -5.2946    94.4727 N.4        1          -0.3646
     17 H1          3.4242    -5.4976    95.4586 H          1           0.4185
     18 C14         4.4214    -4.2175    94.3056 C.3        1          -0.0083
     19 C15         5.4848    -4.1451    95.4260 C.3        1          -0.1567
     20 C16         6.5094    -5.1711    95.1903 C.3        1           0.1133
     21 N3          5.9892    -6.5553    95.0226 N.am       1          -0.6337
     22 C17         5.3497    -6.8811    93.7889 C.3        1           0.0880
     23 C18         3.8300    -6.5711    93.7560 C.3        1          -0.0593
     24 C19         6.1180    -7.4712    96.0030 C.2        1           0.7010
     25 O2          5.2881    -8.3512    96.1257 O.2        1          -0.5414
     26 N4          7.1669    -7.4115    96.8472 N.am       1          -0.6809
     27 C20         7.6762    -8.5856    97.4148 C.ar       1           0.1675
     28 C21         8.2638    -8.5519    98.6727 C.ar       1          -0.1011
     29 C22         8.7652    -9.7111    99.2311 C.ar       1          -0.0739
     30 C23         8.6833   -10.9063    98.5384 C.ar       1          -0.0412
     31 Cl1         9.3146   -12.3616    99.2434 Cl         1          -0.0345
     32 C24         8.0980   -10.9431    97.2840 C.ar       1          -0.0117
     33 Cl2         7.9967   -12.4441    96.4176 Cl         1          -0.0327
     34 C25         7.5895    -9.7862    96.7234 C.ar       1          -0.1261
     35 C26        -1.4413    -8.4367    86.0344 C.ar       1          -0.0936
     36 C27        -1.5129    -8.5707    84.6640 C.ar       1          -0.1256
     37 H2          0.4512    -8.1385    81.9312 H          1           0.0757
     38 H3         -0.7244    -9.4594    82.1342 H          1           0.0707
     39 H4         -1.2906    -7.7779    81.9932 H          1           0.0697
     40 H5          1.6086    -7.5788    83.8360 H          1           0.1288
     41 H6          1.7596    -7.3221    86.2769 H          1           0.1298
     42 H7         -0.8733    -8.3548    88.7275 H          1           0.1364
     43 H8          1.4657    -6.5143    87.9951 H          1           0.1295
     44 H9         -1.1181    -7.1641    90.4174 H          1           0.4017
     45 H10        -0.9579    -7.4385    92.7664 H          1           0.0692
     46 H11         0.7979    -7.1757    92.6395 H          1           0.0695
     47 H12         0.4054    -4.7682    92.1937 H          1           0.0748
     48 H13        -1.3504    -5.0311    92.3205 H          1           0.0741
     49 H14        -0.4246    -4.1616    94.4500 H          1           0.0790
     50 H15        -1.0653    -5.8092    94.6575 H          1           0.0799
     51 H16         1.1467    -5.5699    95.7526 H          1           0.0900
     52 H17         1.2230    -6.7306    94.4054 H          1           0.0885
     53 H18         2.1164    -4.9535    92.9248 H          1           0.1316
     54 H19         2.0401    -3.7927    94.2721 H          1           0.1360
     55 H20         4.9298    -4.3393    93.3492 H          1           0.1314
     56 H21         3.8667    -3.2793    94.2894 H          1           0.1387
     57 H22         5.9492    -3.1591    95.4244 H          1           0.1287
     58 H23         5.0093    -4.3200    96.3913 H          1           0.0902
     59 H24         7.0628    -4.9019    94.2906 H          1           0.1139
     60 H25         7.2005    -5.1648    96.0333 H          1           0.0893
     61 H26         5.8330    -6.3196    92.9893 H          1           0.1183
     62 H27         5.4915    -7.9444    93.5954 H          1           0.1115
     63 H28         3.2936    -7.3933    94.2294 H          1           0.1506
     64 H29         3.5070    -6.4888    92.7181 H          1           0.1305
     65 H30         7.5688    -6.5551    97.0617 H          1           0.4065
     66 H31         8.3289    -7.6194    99.2138 H          1           0.1491
     67 H32         9.2222    -9.6848   100.2094 H          1           0.1514
     68 H33         7.1291    -9.8157    95.7470 H          1           0.1442
     69 H34        -2.2971    -8.6779    86.6475 H          1           0.1261
     70 H35        -2.4264    -8.9174    84.2037 H          1           0.1269
@<TRIPOS>BOND
     1    1    2 1
     2    1   37 1
     3    1   38 1
     4    1   39 1
     5    2   36 ar
     6    2    3 ar
     7    3    4 ar
     8    3   40 1
     9    4    5 ar
    10    4   41 1
    11    5    6 1
    12    5   35 ar
    13    6    7 2
    14    6   42 1
    15    7    8 1
    16    7   43 1
    17    8    9 2
    18    8   10 am
    19   10   11 1
    20   10   44 1
    21   11   12 1
    22   11   45 1
    23   11   46 1
    24   12   13 1
    25   12   47 1
    26   12   48 1
    27   13   14 1
    28   13   49 1
    29   13   50 1
    30   14   15 1
    31   14   51 1
    32   14   52 1
    33   15   16 1
    34   15   53 1
    35   15   54 1
    36   16   17 1
    37   16   23 1
    38   16   18 1
    39   18   19 1
    40   18   55 1
    41   18   56 1
    42   19   20 1
    43   19   57 1
    44   19   58 1
    45   20   21 1
    46   20   59 1
    47   20   60 1
    48   21   22 1
    49   21   24 am
    50   22   23 1
    51   22   61 1
    52   22   62 1
    53   23   63 1
    54   23   64 1
    55   24   25 2
    56   24   26 am
    57   26   27 1
    58   26   65 1
    59   27   34 ar
    60   27   28 ar
    61   28   29 ar
    62   28   66 1
    63   29   30 ar
    64   29   67 1
    65   30   31 1
    66   30   32 ar
    67   32   33 1
    68   32   34 ar
    69   34   68 1
    70   35   36 ar
    71   35   69 1
    72   36   70 1
##########                 Name:              T531411
##########          Protonation:                   41
##########               SMILES:   C[NH+]1CCN(CC1)c2cc[nH+]c3c2cc(cc3)NC(=O)Nc4ccc(c(c4)Cl)Cl
##########            Long Name:   -dichlorophenyl)-3-[4-(4-methylpiperazin-4-ium-1-yl)quinolin-1-ium-6-yl]urea
##########          FlexRecCode: 1
##########               Number:                    2
##########   Ligand Source File: /raidb/db2/rgc/tcams/tcams-0000920.db2.gz
##########           GlobalRank: 168
##########                 Rank:                    1
##########               Setnum:                   44
##########             Matchnum:                 2960
##########                Cloud:                    1
##########        Electrostatic:           -47.182346
##########        Van der Waals:           -28.434774
##########  Ligand Polar Desolv:            11.789608
########## Ligand Apolar Desolv:            -3.020870
##########      Internal Energy:             0.000000
##########      Receptor Energy: 0.0
########## Receptor Desolvation:             0.000000
########## Receptor Hydrophobic:             0.000000
##########         Total Energy: -66.85
##########        Ligand Charge:             2.000000
##########            Arbitrary:    +999.9990
##########     heavy atom count:   29
##########           pose count:    1
##########        Ligand Energy:             0.000000
# num electro vdwattr vdwrepu polsolv apolsol rdesolv rhydroe totalscore fullpol fullapo
#   1    0.77   -0.28    0.01   -0.33   -0.08    0.00    0.00       0.09   -2.04   -0.48
#   2    5.97   -0.30    0.01   -2.30    0.05    0.00    0.00       3.44  -16.60    0.39
#   3   -4.94    0.00    0.00    0.88    0.02    0.00    0.00      -4.04   21.39    0.55
#   4    0.81   -0.84    0.33   -0.20   -0.09    0.00    0.00       0.00   -0.85   -0.40
#   5   -2.73   -0.61    0.09    1.17   -0.12    0.00    0.00      -2.20    4.77   -0.49
#   6    9.38   -0.41    0.01   -5.03    0.20    0.00    0.00       4.15  -29.14    1.17
#   7   -0.59   -0.30    0.03    0.66   -0.07    0.00    0.00      -0.27    4.71   -0.49
#   8    0.22   -0.29    0.02   -0.10   -0.06    0.00    0.00      -0.21   -0.72   -0.40
#   9   -4.47   -0.49    0.01    2.55   -0.10    0.00    0.00      -2.49   13.68   -0.55
#  10    1.08   -0.63    0.02   -0.66   -0.09    0.00    0.00      -0.29   -2.90   -0.40
#  11    2.35   -0.71    0.03   -0.39   -0.11    0.00    0.00       1.18   -1.58   -0.44
#  12   -4.12   -1.05    0.07    1.45   -0.24    0.00    0.00      -3.89    4.09   -0.67
#  13   12.47   -1.22    0.13   -7.58    0.67    0.00    0.00       4.48  -19.13    1.69
#  14   -8.94   -1.08    0.07    5.93   -0.73    0.00    0.00      -4.75   16.43   -2.02
#  15    2.56   -1.45    0.46   -3.62    0.09    0.00    0.00      -1.96  -11.18    0.29
#  16    9.57   -1.50    0.24   -6.08    0.65    0.00    0.00       2.88  -15.83    1.70
#  17   -1.74   -1.55    0.38    1.40   -0.24    0.00    0.00      -1.75    3.91   -0.68
#  18    1.44   -1.59    0.27   -0.88   -0.21    0.00    0.00      -0.96   -1.96   -0.46
#  19    0.75   -1.63    0.27   -0.63   -0.22    0.00    0.00      -1.46   -1.33   -0.46
#  20    0.36   -1.43    0.15   -0.54   -0.14    0.00    0.00      -1.59   -1.13   -0.29
#  21    0.27   -8.19    7.78   -0.51   -0.49    0.00    0.00      -1.14   -0.99   -0.95
#  22    0.11   -1.11    0.11   -0.22   -0.11    0.00    0.00      -1.22   -0.59   -0.29
#  23    0.30   -2.61    0.65   -0.31   -0.32    0.00    0.00      -2.30   -0.93   -0.95
#  24    0.77   -1.23    0.24   -0.54   -0.12    0.00    0.00      -0.89   -1.71   -0.39
#  25    0.81   -1.89    0.39   -1.49   -0.19    0.00    0.00      -2.38   -3.17   -0.40
#  26    2.51   -1.64    0.21   -1.79   -0.22    0.00    0.00      -0.92   -3.79   -0.46
#  27   -2.85   -0.94    0.05    1.50   -0.26    0.00    0.00      -2.50    4.14   -0.73
#  28   11.74   -1.24    0.21   -6.06    0.35    0.00    0.00       5.00  -16.92    0.97
#  29  -16.49   -0.05    0.00    5.85    0.19    0.00    0.00     -10.49   17.67    0.58
#  30   -4.19   -0.85    0.07    2.89   -0.28    0.00    0.00      -2.37    9.87   -0.96
#  31    2.00   -0.53    0.02   -1.42   -0.10    0.00    0.00      -0.03   -7.00   -0.47
#  32   -2.31   -0.16    0.02    0.77   -0.05    0.00    0.00      -1.72    4.76   -0.28
#  33   -1.23   -0.04    0.00    0.21   -0.01    0.00    0.00      -1.07    5.20   -0.28
#  34   -2.23   -0.09    0.00    0.58   -0.03    0.00    0.00      -1.77    5.74   -0.28
#  35   -4.64   -0.35    0.24    1.33   -0.04    0.00    0.00      -3.47    7.13   -0.24
#  36   -5.82   -0.53    0.39    1.79   -0.07    0.00    0.00      -4.23    7.54   -0.28
#  37   -4.19   -0.38    0.11    1.21   -0.07    0.00    0.00      -3.32    4.47   -0.27
#  38   -1.58   -0.14    0.01    0.76   -0.05    0.00    0.00      -1.00    4.62   -0.28
#  39   -0.04   -0.22    0.06    0.58   -0.04    0.00    0.00       0.35    3.80   -0.27
#  40   -0.33   -0.05    0.00    0.23   -0.01    0.00    0.00      -0.16    4.64   -0.28
#  41   -0.50   -0.09    0.01    0.62   -0.03    0.00    0.00       0.01    6.89   -0.28
#  42   -1.22   -0.11    0.01    0.62   -0.02    0.00    0.00      -0.72    6.55   -0.24
#  43   -2.81   -0.11    0.00    1.06   -0.02    0.00    0.00      -1.88    9.65   -0.18
#  44   -8.60   -0.03    0.00    4.62    0.17    0.00    0.00      -3.84   16.43    0.59
#  45   -7.30   -0.03    0.00    4.28    0.19    0.00    0.00      -2.86   13.61    0.59
#  46   -2.21   -0.33    0.04    2.03   -0.11    0.00    0.00      -0.59    5.22   -0.28
#  47   -1.57   -0.54    0.27    1.09   -0.11    0.00    0.00      -0.87    2.69   -0.28
#  48   -0.95   -0.19    0.02    0.36   -0.04    0.00    0.00      -0.80    2.08   -0.21
#  49   -3.70   -0.75    0.49    0.58   -0.10    0.00    0.00      -3.48    1.25   -0.22
#  50   -4.96   -0.52    0.12    2.22   -0.14    0.00    0.00      -3.28    4.42   -0.28
#  51   -4.98   -0.27    0.09    2.50   -0.06    0.00    0.00      -2.72   11.70   -0.28
#  52   -1.21   -0.08    0.00    0.77   -0.02    0.00    0.00      -0.55    8.96   -0.28

@<TRIPOS>MOLECULE
          T531411        41
   52    55     0     0     0



@<TRIPOS>ATOM
      1 C1          7.1287    -8.2342    90.7411 C.3        1          -0.0496
      2 N1          5.7021    -7.8866    90.7886 N.4        1          -0.3846
      3 H1          5.3031    -7.9820    89.8668 H          1           0.4304
      4 C2          5.5533    -6.4984    91.2431 C.3        1          -0.0266
      5 C3          4.0755    -6.0982    91.1837 C.3        1           0.1141
      6 N2          3.2957    -7.0771    91.9568 N.pl3      1          -0.6905
      7 C4          3.5051    -8.5062    91.6775 C.3        1           0.1141
      8 C5          5.0104    -8.7914    91.7153 C.3        1          -0.0268
      9 C6          2.3883    -6.6643    92.9217 C.ar       1           0.3157
     10 C7          2.7865    -6.4823    94.2681 C.ar       1          -0.0618
     11 C8          4.1081    -6.7120    94.6733 C.ar       1          -0.1291
     12 C9          4.4553    -6.5229    95.9936 C.ar       1           0.2221
     13 N3          5.7741    -6.7506    96.4044 N.am       1          -0.6835
     14 C10         6.3254    -7.9713    96.2543 C.2        1           0.7041
     15 O1          5.6773    -8.8747    95.7622 O.2        1          -0.5382
     16 N4          7.5950    -8.1906    96.6498 N.am       1          -0.6654
     17 C11         8.1675    -9.4584    96.4940 C.ar       1           0.1579
     18 C12         9.1375    -9.8978    97.3856 C.ar       1          -0.1203
     19 C13         9.7013   -11.1490    97.2302 C.ar       1          -0.0732
     20 C14         9.3008   -11.9652    96.1870 C.ar       1          -0.0386
     21 Cl1        10.0117   -13.5374    95.9947 Cl         1          -0.0290
     22 C15         8.3336   -11.5302    95.2967 C.ar       1          -0.0135
     23 Cl2         7.8331   -12.5570    93.9894 Cl         1          -0.0305
     24 C16         7.7628   -10.2807    95.4514 C.ar       1          -0.1014
     25 C17         3.5003    -6.1046    96.9261 C.ar       1          -0.0396
     26 C18         2.2124    -5.8765    96.5544 C.ar       1          -0.1054
     27 C19         1.8241    -6.0597    95.2157 C.ar       1           0.1287
     28 N5          0.5611    -5.8391    94.8311 N.ar       1          -0.4470
     29 H2         -0.0896    -5.5496    95.4897 H          1           0.4546
     30 C20         0.1804    -6.0038    93.5861 C.ar       1           0.2130
     31 C21         1.0655    -6.4118    92.5968 C.ar       1          -0.1681
     32 H3          7.5609    -8.1317    91.7365 H          1           0.1303
     33 H4          7.2407    -9.2636    90.4006 H          1           0.1305
     34 H5          7.6427    -7.5653    90.0510 H          1           0.1215
     35 H6          5.9125    -6.4113    92.2686 H          1           0.1283
     36 H7          6.1344    -5.8402    90.5973 H          1           0.1501
     37 H8          3.9473    -5.1052    91.6148 H          1           0.1225
     38 H9          3.7377    -6.0971    90.1473 H          1           0.1011
     39 H10         2.9999    -9.1053    92.4351 H          1           0.1224
     40 H11         3.1098    -8.7483    90.6911 H          1           0.1014
     41 H12         5.1909    -9.8242    91.4176 H          1           0.1499
     42 H13         5.3863    -8.6333    92.7262 H          1           0.1293
     43 H14         4.8487    -7.0350    93.9566 H          1           0.1447
     44 H15         6.2912    -6.0299    96.7970 H          1           0.4174
     45 H16         8.1120    -7.4699    97.0425 H          1           0.4164
     46 H17         9.4511    -9.2614    98.1998 H          1           0.1455
     47 H18        10.4560   -11.4905    97.9233 H          1           0.1552
     48 H19         7.0054    -9.9430    94.7594 H          1           0.1525
     49 H20         3.7902    -5.9611    97.9565 H          1           0.1730
     50 H21         1.4878    -5.5547    97.2876 H          1           0.1692
     51 H22        -0.8495    -5.8134    93.3227 H          1           0.2182
     52 H23         0.7235    -6.5349    91.5799 H          1           0.1884
@<TRIPOS>BOND
     1    1    2 1
     2    1   32 1
     3    1   33 1
     4    1   34 1
     5    2    3 1
     6    2    8 1
     7    2    4 1
     8    4    5 1
     9    4   35 1
    10    4   36 1
    11    5    6 1
    12    5   37 1
    13    5   38 1
    14    6    7 1
    15    6    9 1
    16    7    8 1
    17    7   39 1
    18    7   40 1
    19    8   41 1
    20    8   42 1
    21    9   31 ar
    22    9   10 ar
    23   10   27 ar
    24   10   11 ar
    25   11   12 ar
    26   11   43 1
    27   12   13 1
    28   12   25 ar
    29   13   14 am
    30   13   44 1
    31   14   15 2
    32   14   16 am
    33   16   17 1
    34   16   45 1
    35   17   24 ar
    36   17   18 ar
    37   18   19 ar
    38   18   46 1
    39   19   20 ar
    40   19   47 1
    41   20   21 1
    42   20   22 ar
    43   22   23 1
    44   22   24 ar
    45   24   48 1
    46   25   26 ar
    47   25   49 1
    48   26   27 ar
    49   26   50 1
    50   27   28 ar
    51   28   29 1
    52   28   30 ar
    53   30   31 ar
    54   30   51 1
    55   31   52 1
##########                 Name:              T536330
##########          Protonation:                  100
##########               SMILES:   Cc1ccc(cc1)CC[C@@H](C)[NH2+]C[C@@H](c2cccc(c2)C(F)(F)F)O
##########            Long Name:   -[3-(trifluoromethyl)phenyl]ethyl]-[(1R)-1-methyl-3-(p-tolyl)propyl]ammonium
##########          FlexRecCode: 1
##########               Number:                  199
##########   Ligand Source File: /raidb/db2/rgc/tcams/tcams-0001555.db2.gz
##########           GlobalRank: 169
##########                 Rank:                    1
##########               Setnum:                    1
##########             Matchnum:                 1142
##########                Cloud:                    1
##########        Electrostatic:           -47.604412
##########        Van der Waals:           -25.494938
##########  Ligand Polar Desolv:             9.533859
########## Ligand Apolar Desolv:            -3.260118
##########      Internal Energy:             0.000000
##########      Receptor Energy: 0.0
########## Receptor Desolvation:             0.000000
########## Receptor Hydrophobic:             0.000000
##########         Total Energy: -66.83
##########        Ligand Charge:             1.000000
##########            Arbitrary:    +999.9990
##########     heavy atom count:   25
##########           pose count:    1
##########        Ligand Energy:             0.000000
# num electro vdwattr vdwrepu polsolv apolsol rdesolv rhydroe totalscore fullpol fullapo
#   1    6.29   -2.45    0.90   -3.40   -0.11    0.00    0.00       1.22   -5.82   -0.19
#   2   -0.76   -1.27    0.32    1.18   -0.11    0.00    0.00      -0.65    2.52   -0.24
#   3    2.91   -0.89    0.12   -1.46   -0.08    0.00    0.00       0.60   -3.74   -0.21
#   4    1.44   -1.09    0.20   -1.13   -0.10    0.00    0.00      -0.69   -2.40   -0.21
#   5    1.41   -1.49    0.18   -0.62   -0.16    0.00    0.00      -0.69   -1.37   -0.36
#   6    0.84   -1.37    0.16   -0.66   -0.16    0.00    0.00      -1.20   -1.83   -0.45
#   7    0.65   -1.54    0.23   -0.69   -0.18    0.00    0.00      -1.53   -1.71   -0.45
#   8    0.57   -1.80    0.49   -0.62   -0.21    0.00    0.00      -1.58   -1.19   -0.41
#   9    0.88   -1.52    0.29   -0.49   -0.12    0.00    0.00      -0.95   -0.81   -0.20
#  10    1.40   -2.29    1.18   -0.80   -0.24    0.00    0.00      -0.76   -1.52   -0.45
#  11    1.69   -2.01    0.46   -0.98   -0.24    0.00    0.00      -1.08   -1.80   -0.45
#  12   20.41   -1.94    1.89   -7.48    0.27    0.00    0.00      13.16  -17.48    0.63
#  13  -23.17   -0.09    0.02    6.98    0.22    0.00    0.00     -16.04   16.84    0.53
#  14  -18.23   -0.04    0.00    4.29    0.11    0.00    0.00     -13.87   17.15    0.44
#  15    1.34   -0.61    0.04   -0.28   -0.12    0.00    0.00       0.38   -0.88   -0.36
#  16   -3.89   -0.65    0.07    1.18   -0.04    0.00    0.00      -3.33    4.29   -0.15
#  17   21.53   -2.76    1.63   -6.65    0.67    0.00    0.00      14.41  -16.00    1.61
#  18    2.59   -0.61    0.02   -0.54   -0.08    0.00    0.00       1.39   -2.36   -0.34
#  19    1.65   -0.85    0.04   -0.41   -0.14    0.00    0.00       0.30   -1.32   -0.44
#  20    2.68   -1.15    0.17   -0.73   -0.16    0.00    0.00       0.81   -2.22   -0.47
#  21    0.84   -1.18    0.30   -0.43   -0.13    0.00    0.00      -0.59   -1.46   -0.44
#  22    0.89   -0.54    0.02   -0.59   -0.08    0.00    0.00      -0.30   -2.65   -0.37
#  23    0.52   -0.43    0.01   -0.20   -0.07    0.00    0.00      -0.17   -1.22   -0.44
#  24   -0.96   -0.32    0.01    0.81   -0.01    0.00    0.00      -0.47    3.82   -0.07
#  25    0.42   -0.62    0.11   -0.30   -0.12    0.00    0.00      -0.51   -1.11   -0.44
#  26    0.28   -0.13    0.00   -0.15   -0.05    0.00    0.00      -0.06   -1.35   -0.48
#  27    0.17   -0.36    0.03   -0.35   -0.11    0.00    0.00      -0.62   -1.50   -0.48
#  28   -4.04   -1.09    0.56    0.89   -0.18    0.00    0.00      -3.85    1.41   -0.28
#  29   -2.18   -0.88    0.72    1.56   -0.17    0.00    0.00      -0.96    2.55   -0.28
#  30   -3.22   -1.12    0.93    1.98   -0.13    0.00    0.00      -1.56    3.26   -0.21
#  31   -3.63   -0.68    0.66    2.04   -0.10    0.00    0.00      -1.70    5.87   -0.28
#  32   -1.44   -0.15    0.01    0.39   -0.04    0.00    0.00      -1.24    2.81   -0.28
#  33   -2.52   -0.61    0.43    0.51   -0.09    0.00    0.00      -2.29    1.65   -0.28
#  34   -1.58   -0.51    0.20    1.09   -0.11    0.00    0.00      -0.92    2.68   -0.28
#  35   -0.96   -0.37    0.09    1.57   -0.08    0.00    0.00       0.24    4.27   -0.22
#  36   -0.72   -0.23    0.02    0.80   -0.06    0.00    0.00      -0.18    3.67   -0.28
#  37   -0.43   -0.31    0.04    0.33   -0.08    0.00    0.00      -0.45    1.15   -0.28
#  38   -0.28   -0.66    0.22    0.23   -0.16    0.00    0.00      -0.65    0.41   -0.28
#  39   -0.59   -0.63    0.27    0.18   -0.15    0.00    0.00      -0.93    0.32   -0.28
#  40   -0.58   -0.38    0.04    0.20   -0.13    0.00    0.00      -0.85    0.43   -0.28
#  41   -1.62   -0.58    0.33    0.36   -0.14    0.00    0.00      -1.65    0.72   -0.28
#  42   -2.62   -0.48    0.08    1.20   -0.15    0.00    0.00      -1.98    2.25   -0.28
#  43   -2.68   -0.12    0.00    0.63   -0.03    0.00    0.00      -2.19    6.12   -0.28
#  44   -3.89   -0.21    0.01    1.18   -0.04    0.00    0.00      -2.95    5.93   -0.22
#  45   -3.72   -0.16    0.02    0.71   -0.04    0.00    0.00      -3.19    4.73   -0.28
#  46  -23.10   -0.13    0.02    5.58    0.44    0.00    0.00     -17.19   12.70    1.00
#  47   -3.37   -0.25    0.03    1.39   -0.06    0.00    0.00      -2.27    5.51   -0.23
#  48   -4.97   -0.46    0.24    0.78   -0.09    0.00    0.00      -4.50    2.41   -0.28
#  49   -2.73   -0.80    1.61    0.27   -0.08    0.00    0.00      -1.73    0.84   -0.25
#  50   -1.13   -0.06    0.00    0.18   -0.01    0.00    0.00      -1.02    3.46   -0.28

@<TRIPOS>MOLECULE
          T536330       100
   50    51     0     0     0



@<TRIPOS>ATOM
      1 C1          7.7179    -4.5617    95.7634 C.3        1          -0.1844
      2 C2          6.4779    -5.4558    95.6996 C.3        1           0.0255
      3 C3          6.8955    -6.9191    95.8573 C.3        1          -0.1420
      4 C4          7.1234    -7.2276    97.3386 C.3        1          -0.0879
      5 C5          7.5348    -8.6690    97.4940 C.ar       1          -0.1100
      6 C6          7.0851    -9.6171    96.5940 C.ar       1          -0.1119
      7 C7          7.4626   -10.9392    96.7367 C.ar       1          -0.1173
      8 C8          8.2900   -11.3132    97.7790 C.ar       1          -0.0726
      9 C9          8.7010   -12.7546    97.9347 C.3        1          -0.1244
     10 C10         8.7408   -10.3649    98.6781 C.ar       1          -0.1161
     11 C11         8.3664    -9.0421    98.5333 C.ar       1          -0.1073
     12 N1          5.8096    -5.2743    94.4040 N.4        1          -0.5053
     13 H1          5.8282    -4.2981    94.1498 H          1           0.4301
     14 H2          6.2893    -5.8145    93.6996 H          1           0.4273
     15 C12         4.4159    -5.7278    94.5043 C.3        1          -0.0478
     16 C13         3.7199    -5.5386    93.1549 C.3        1           0.1364
     17 O1          3.7462    -4.1560    92.7948 O.3        1          -0.5441
     18 C14         2.2902    -6.0038    93.2576 C.ar       1          -0.1430
     19 C15         1.4322    -5.4067    94.1624 C.ar       1          -0.0749
     20 C16         0.1210    -5.8334    94.2566 C.ar       1          -0.1083
     21 C17        -0.3328    -6.8570    93.4456 C.ar       1          -0.0524
     22 C18         0.5246    -7.4534    92.5404 C.ar       1          -0.1723
     23 C19         1.8351    -7.0237    92.4432 C.ar       1          -0.0522
     24 C20         0.0300    -8.5694    91.6568 C.3        1           0.5064
     25 F1         -1.3177    -8.8216    91.9343 F          1          -0.1707
     26 F2          0.1682    -8.1980    90.3150 F          1          -0.1717
     27 F3          0.7805    -9.7246    91.9004 F          1          -0.1742
     28 H3          7.4203    -3.5191    95.6510 H          1           0.1082
     29 H4          8.2138    -4.6965    96.7246 H          1           0.0834
     30 H5          8.4029    -4.8327    94.9600 H          1           0.0809
     31 H6          5.7928    -5.1847    96.5030 H          1           0.1416
     32 H7          6.1088    -7.5655    95.4685 H          1           0.0917
     33 H8          7.8177    -7.0956    95.3035 H          1           0.1156
     34 H9          7.9101    -6.5813    97.7275 H          1           0.0870
     35 H10         6.2013    -7.0513    97.8923 H          1           0.0649
     36 H11         6.4386    -9.3249    95.7797 H          1           0.1190
     37 H12         7.1107   -11.6801    96.0340 H          1           0.1261
     38 H13         9.3486   -12.8558    98.8057 H          1           0.0760
     39 H14         7.8135   -13.3733    98.0679 H          1           0.0711
     40 H15         9.2384   -13.0776    97.0430 H          1           0.0707
     41 H16         9.3875   -10.6570    99.4921 H          1           0.1269
     42 H17         8.7213    -8.3007    99.2337 H          1           0.1229
     43 H18         4.3957    -6.7823    94.7787 H          1           0.1461
     44 H19         3.8978    -5.1442    95.2652 H          1           0.1402
     45 H20         4.2380    -6.1222    92.3937 H          1           0.1349
     46 H21         4.6366    -3.7883    92.7105 H          1           0.3887
     47 H22         1.7868    -4.6072    94.7959 H          1           0.1338
     48 H23        -0.5490    -5.3674    94.9640 H          1           0.1463
     49 H24        -1.3573    -7.1908    93.5197 H          1           0.1490
     50 H25         2.5040    -7.4871    91.7331 H          1           0.1398
@<TRIPOS>BOND
     1    1    2 1
     2    1   28 1
     3    1   29 1
     4    1   30 1
     5    2    3 1
     6    2   12 1
     7    2   31 1
     8    3    4 1
     9    3   32 1
    10    3   33 1
    11    4    5 1
    12    4   34 1
    13    4   35 1
    14    5   11 ar
    15    5    6 ar
    16    6    7 ar
    17    6   36 1
    18    7    8 ar
    19    7   37 1
    20    8    9 1
    21    8   10 ar
    22    9   38 1
    23    9   39 1
    24    9   40 1
    25   10   11 ar
    26   10   41 1
    27   11   42 1
    28   12   13 1
    29   12   14 1
    30   12   15 1
    31   15   16 1
    32   15   43 1
    33   15   44 1
    34   16   17 1
    35   16   18 1
    36   16   45 1
    37   17   46 1
    38   18   23 ar
    39   18   19 ar
    40   19   20 ar
    41   19   47 1
    42   20   21 ar
    43   20   48 1
    44   21   22 ar
    45   21   49 1
    46   22   23 ar
    47   22   24 1
    48   23   50 1
    49   24   25 1
    50   24   26 1
    51   24   27 1
##########                 Name:              T532998
##########          Protonation:                   23
##########               SMILES:   COc1c(ccc(c1)CCNc2nc([nH+]c(n2)NCc3c(cccc3)c4ccccc4)N5CC[C@@H](CC5)[NH3+])O
##########            Long Name:   [(2-phenylphenyl)methylamino]-1,3,5-triazin-1-ium-2-yl]-4-piperidyl]ammonium
##########          FlexRecCode: 1
##########               Number:                  281
##########   Ligand Source File: /raidb/db2/rgc/tcams/tcams-0001103.db2.gz
##########           GlobalRank: 170
##########                 Rank:                    1
##########               Setnum:                  390
##########             Matchnum:                 3504
##########                Cloud:                    1
##########        Electrostatic:           -50.773159
##########        Van der Waals:           -29.784422
##########  Ligand Polar Desolv:            18.312984
########## Ligand Apolar Desolv:            -4.577604
##########      Internal Energy:             0.000000
##########      Receptor Energy: 0.0
########## Receptor Desolvation:             0.000000
########## Receptor Hydrophobic:             0.000000
##########         Total Energy: -66.82
##########        Ligand Charge:             2.000000
##########            Arbitrary:    +999.9990
##########     heavy atom count:   39
##########           pose count:    1
##########        Ligand Energy:             0.000000
# num electro vdwattr vdwrepu polsolv apolsol rdesolv rhydroe totalscore fullpol fullapo
#   1    0.03   -0.79    0.39    0.03    0.01    0.00    0.00      -0.34    0.14    0.03
#   2   -0.69   -0.71    0.11   -0.67    0.14    0.00    0.00      -1.82   -3.04    0.62
#   3    0.42   -2.15    1.84    0.10   -0.09    0.00    0.00       0.13    0.35   -0.31
#   4   -0.27   -1.52    1.00   -0.62   -0.09    0.00    0.00      -1.50   -2.72   -0.40
#   5    0.36   -1.85    0.94   -0.16   -0.10    0.00    0.00      -0.81   -0.56   -0.36
#   6    1.19   -1.15    0.52   -0.51   -0.06    0.00    0.00      -0.02   -1.85   -0.23
#   7   -0.78   -0.45    0.04    0.84   -0.10    0.00    0.00      -0.45    3.67   -0.43
#   8    3.04   -0.29    0.01   -2.07    0.21    0.00    0.00       0.90  -17.22    1.72
#   9   -4.94   -0.42    0.05    2.45   -0.65    0.00    0.00      -3.50   18.15   -4.81
#  10    5.51   -0.87    0.25   -3.57    0.39    0.00    0.00       1.71  -18.10    1.96
#  11  -10.75   -1.96    1.64    5.29   -1.19    0.00    0.00      -6.96   21.39   -4.81
#  12   11.28   -2.19    1.42   -5.62    0.49    0.00    0.00       5.38  -19.54    1.70
#  13   -1.29   -0.70    0.08    1.25   -0.10    0.00    0.00      -0.75    4.29   -0.33
#  14    1.45   -1.21    0.11   -0.75   -0.13    0.00    0.00      -0.52   -2.06   -0.37
#  15    1.00   -1.43    0.21   -0.75   -0.18    0.00    0.00      -1.15   -1.89   -0.45
#  16    1.68   -1.82    0.32   -1.47   -0.25    0.00    0.00      -1.54   -2.80   -0.47
#  17    1.58   -2.57    0.58   -1.35   -0.27    0.00    0.00      -2.02   -2.31   -0.47
#  18    1.56   -2.40    0.68   -1.37   -0.25    0.00    0.00      -1.78   -2.51   -0.46
#  19    0.32   -1.38    0.14   -0.28   -0.17    0.00    0.00      -1.37   -0.64   -0.38
#  20    0.97   -1.28    0.15   -0.42   -0.13    0.00    0.00      -0.71   -1.08   -0.33
#  21    2.65   -1.65    0.41   -1.05   -0.20    0.00    0.00       0.16   -2.40   -0.46
#  22    3.35   -1.63    0.23   -1.15   -0.20    0.00    0.00       0.60   -2.67   -0.47
#  23    2.84   -1.19    0.09   -1.10   -0.18    0.00    0.00       0.46   -2.87   -0.47
#  24    2.22   -1.14    0.08   -1.05   -0.19    0.00    0.00      -0.07   -2.58   -0.47
#  25    1.49   -1.54    0.23   -0.99   -0.15    0.00    0.00      -0.95   -2.44   -0.37
#  26   13.68   -2.01    1.26   -5.71    0.27    0.00    0.00       7.49  -21.28    0.99
#  27  -13.50   -0.05    0.00    5.99    0.10    0.00    0.00      -7.46   18.46    0.31
#  28  -10.96   -0.72    0.11    4.73   -0.94    0.00    0.00      -7.78   23.38   -4.66
#  29    5.63   -0.33    0.02   -2.38    0.23    0.00    0.00       3.17  -19.44    1.84
#  30   10.69   -0.66    0.05   -4.33    0.35    0.00    0.00       6.11  -20.57    1.68
#  31   -3.87   -1.50    0.93    1.20   -0.16    0.00    0.00      -3.39    3.73   -0.48
#  32    4.52   -0.92    0.18   -2.09   -0.07    0.00    0.00       1.62   -6.73   -0.24
#  33   -0.54   -0.58    0.04    0.95   -0.10    0.00    0.00      -0.23    2.89   -0.29
#  34   11.92   -1.57    0.80  -11.44    0.27    0.00    0.00      -0.02  -31.94    0.74
#  35  -10.23   -0.03    0.00    7.73    0.19    0.00    0.00      -2.34   24.04    0.58
#  36  -12.64   -0.08    0.01    7.96    0.19    0.00    0.00      -4.56   24.64    0.58
#  37   -2.45   -0.02    0.00    4.53    0.11    0.00    0.00       2.17   23.55    0.58
#  38    1.92   -0.32    0.02   -1.35   -0.04    0.00    0.00       0.23   -7.40   -0.24
#  39   -1.21   -0.24    0.01    0.42   -0.07    0.00    0.00      -1.10    2.94   -0.48
#  40    0.95   -2.71    1.97   -0.75   -0.17    0.00    0.00      -0.70   -2.04   -0.46
#  41    0.42   -3.80    2.87   -0.61   -0.18    0.00    0.00      -1.30   -1.52   -0.46
#  42    0.13   -3.45    2.78   -0.09   -0.12    0.00    0.00      -0.74   -0.23   -0.31
#  43   -2.06   -2.65    0.97   -1.41    0.35    0.00    0.00      -4.79   -3.25    0.81
#  44    0.06   -0.07    0.00    0.09   -0.02    0.00    0.00       0.06    1.33   -0.28
#  45    0.19   -0.65    0.97    0.32   -0.06    0.00    0.00       0.77    1.36   -0.27
#  46    0.06   -0.25    0.12    0.17   -0.04    0.00    0.00       0.07    1.27   -0.27
#  47   -0.05   -0.10    0.01    0.27   -0.02    0.00    0.00       0.11    3.09   -0.22
#  48   -0.93   -0.26    0.10    0.56   -0.05    0.00    0.00      -0.59    3.07   -0.28
#  49   -2.38   -1.42    3.50    0.93   -0.10    0.00    0.00       0.54    2.74   -0.28
#  50   -0.42   -0.15    0.02    0.21   -0.04    0.00    0.00      -0.39    1.40   -0.28
#  51   -0.53   -0.16    0.01    0.25   -0.04    0.00    0.00      -0.47    1.61   -0.28
#  52   -1.50    0.00    0.00    0.39    0.02    0.00    0.00      -1.10   12.53    0.58
#  53  -10.58   -0.06    0.00    3.28    0.17    0.00    0.00      -7.18   11.10    0.58
#  54   -0.61   -0.22    0.05    0.81   -0.03    0.00    0.00       0.00    4.97   -0.17
#  55   -0.50   -0.20    0.02    1.12   -0.05    0.00    0.00       0.40    6.22   -0.26
#  56   -1.29   -0.25    0.03    1.05   -0.06    0.00    0.00      -0.51    5.03   -0.28
#  57   -2.06   -0.34    0.04    0.88   -0.11    0.00    0.00      -1.58    2.22   -0.28
#  58   -3.57   -1.00    0.97    0.76   -0.17    0.00    0.00      -3.01    1.27   -0.28
#  59   -1.89   -0.93    1.09    0.61   -0.15    0.00    0.00      -1.27    1.16   -0.28
#  60   -3.88   -0.37    0.08    0.57   -0.12    0.00    0.00      -3.73    1.36   -0.28
#  61   -5.22   -0.43    0.06    0.67   -0.12    0.00    0.00      -5.05    1.54   -0.28
#  62   -3.30   -0.24    0.02    0.63   -0.07    0.00    0.00      -2.96    2.62   -0.28
#  63   -2.37   -0.23    0.01    1.39   -0.08    0.00    0.00      -1.27    5.07   -0.28
#  64   -0.57   -0.67    0.39    2.14   -0.09    0.00    0.00       1.21    5.56   -0.24
#  65   -5.43   -0.81    0.86    0.79   -0.08    0.00    0.00      -4.67    2.51   -0.24
#  66   -3.49   -1.14    3.48    1.53   -0.10    0.00    0.00       0.29    4.37   -0.28
#  67   -1.84   -0.14    0.01    0.57   -0.04    0.00    0.00      -1.45    3.93   -0.28
#  68   -4.78   -0.72    0.51    2.03   -0.10    0.00    0.00      -3.06    5.64   -0.28
#  69   -4.34   -0.22    0.02    2.35   -0.08    0.00    0.00      -2.27    8.51   -0.28
#  70   -0.85   -0.07    0.00    0.34   -0.02    0.00    0.00      -0.59    4.77   -0.28
#  71   -0.94   -0.13    0.01    1.04   -0.04    0.00    0.00      -0.06    7.45   -0.28
#  72   -1.35   -0.08    0.00    0.45   -0.02    0.00    0.00      -1.00    5.97   -0.28
#  73   -0.62   -0.04    0.00    0.19   -0.01    0.00    0.00      -0.48    5.02   -0.20
#  74   -1.73   -0.42    0.14    1.08   -0.08    0.00    0.00      -1.01    3.57   -0.28
#  75   -1.42   -1.20    3.07    0.67   -0.12    0.00    0.00       1.00    1.60   -0.28
#  76    0.71   -0.07    0.00    1.81    0.58    0.00    0.00       3.02    3.81    1.22

@<TRIPOS>MOLECULE
          T532998        23
   76    80     0     0     0



@<TRIPOS>ATOM
      1 C1         13.7508   -12.1831    90.7781 C.3        1           0.0245
      2 O1         12.7204   -11.2755    91.1737 O.3        1          -0.3031
      3 C2         11.8366   -11.7147    92.1094 C.ar       1           0.1082
      4 C3         10.6796   -12.3695    91.7184 C.ar       1          -0.1884
      5 C4          9.7826   -12.8157    92.6710 C.ar       1          -0.0661
      6 C5          8.5248   -13.5277    92.2440 C.3        1          -0.0911
      7 C6          7.4050   -12.5056    92.0380 C.3        1           0.1187
      8 N1          7.8011   -11.5496    91.0011 N.pl3      1          -0.6311
      9 C7          7.8894   -10.2050    91.2993 C.ar       1           0.6782
     10 N2          7.6203    -9.7780    92.5294 N.ar       1          -0.6071
     11 C8          7.7053    -8.4830    92.8167 C.ar       1           0.6926
     12 N3          7.4260    -8.0398    94.0935 N.pl3      1          -0.6439
     13 C9          6.6338    -8.8731    95.0013 C.3        1           0.1354
     14 C10         7.0539    -8.6059    96.4238 C.ar       1          -0.1269
     15 C11         8.0699    -9.3452    96.9952 C.ar       1          -0.0875
     16 C12         8.4564    -9.1011    98.3005 C.ar       1          -0.1126
     17 C13         7.8281    -8.1153    99.0403 C.ar       1          -0.0852
     18 C14         6.8116    -7.3699    98.4789 C.ar       1          -0.1024
     19 C15         6.4213    -7.6084    97.1625 C.ar       1          -0.0228
     20 C16         5.3323    -6.8066    96.5517 C.ar       1          -0.0571
     21 C17         5.6295    -5.6290    95.8687 C.ar       1          -0.1000
     22 C18         4.6128    -4.8874    95.3021 C.ar       1          -0.1074
     23 C19         3.3005    -5.3112    95.4114 C.ar       1          -0.1124
     24 C20         2.9999    -6.4791    96.0887 C.ar       1          -0.1215
     25 C21         4.0093    -7.2315    96.6542 C.ar       1          -0.1201
     26 N4          8.0599    -7.6149    91.8743 N.ar       1          -0.6377
     27 H1          8.1222    -6.6699    92.0841 H          1           0.4321
     28 C22         8.3293    -8.0419    90.6447 C.ar       1           0.6943
     29 N5          8.2486    -9.3377    90.3584 N.ar       1          -0.6162
     30 N6          8.6972    -7.1407    89.6663 N.pl3      1          -0.5764
     31 C23         8.2068    -5.7561    89.7014 C.3        1           0.1235
     32 C24         7.5520    -5.4309    88.3552 C.3        1          -0.1632
     33 C25         8.5451    -5.7176    87.2268 C.3        1           0.0246
     34 N7          7.9318    -5.3753    85.9364 N.4        1          -0.6362
     35 H2          7.6879    -4.3963    85.9291 H          1           0.4437
     36 H3          8.5866    -5.5644    85.1923 H          1           0.4418
     37 H4          7.1002    -5.9303    85.8016 H          1           0.4362
     38 C26         8.9168    -7.2021    87.2369 C.3        1          -0.1621
     39 C27         9.5917    -7.5459    88.5735 C.3        1           0.1070
     40 C28        10.0369   -12.6107    94.0143 C.ar       1          -0.1320
     41 C29        11.1890   -11.9578    94.4111 C.ar       1          -0.1033
     42 C30        12.0948   -11.5126    93.4618 C.ar       1           0.0860
     43 O2         13.2317   -10.8754    93.8506 O.3        1          -0.4855
     44 H5         14.3848   -11.7089    90.0289 H          1           0.1065
     45 H6         14.3525   -12.4507    91.6466 H          1           0.0543
     46 H7         13.3009   -13.0822    90.3568 H          1           0.0569
     47 H8         10.4785   -12.5309    90.6696 H          1           0.1327
     48 H9          8.7075   -14.0595    91.3101 H          1           0.0894
     49 H10         8.2302   -14.2390    93.0156 H          1           0.0868
     50 H11         6.4954   -13.0205    91.7293 H          1           0.0919
     51 H12         7.2225   -11.9738    92.9719 H          1           0.0939
     52 H13         8.0012   -11.8616    90.1047 H          1           0.4325
     53 H14         7.7545    -7.1766    94.3898 H          1           0.4472
     54 H15         5.5767    -8.6349    94.8838 H          1           0.0963
     55 H16         6.7978    -9.9246    94.7655 H          1           0.0928
     56 H17         8.5637   -10.1160    96.4221 H          1           0.1296
     57 H18         9.2513    -9.6823    98.7439 H          1           0.1357
     58 H19         8.1337    -7.9290   100.0594 H          1           0.1372
     59 H20         6.3215    -6.6008    99.0576 H          1           0.1343
     60 H21         6.6538    -5.2972    95.7831 H          1           0.1293
     61 H22         4.8420    -3.9743    94.7728 H          1           0.1309
     62 H23         2.5080    -4.7278    94.9666 H          1           0.1260
     63 H24         1.9735    -6.8053    96.1713 H          1           0.1218
     64 H25         3.7737    -8.1456    97.1790 H          1           0.1205
     65 H26         7.4731    -5.6484    90.5003 H          1           0.1335
     66 H27         9.0416    -5.0771    89.8751 H          1           0.1042
     67 H28         6.6637    -6.0489    88.2239 H          1           0.0999
     68 H29         7.2698    -4.3782    88.3329 H          1           0.1189
     69 H30         9.4434    -5.1175    87.3725 H          1           0.1525
     70 H31         8.0158    -7.8035    87.1161 H          1           0.1009
     71 H32         9.6060    -7.4102    86.4185 H          1           0.1198
     72 H33        10.5371    -7.0099    88.6570 H          1           0.1165
     73 H34         9.7719    -8.6195    88.6277 H          1           0.0957
     74 H35         9.3338   -12.9612    94.7554 H          1           0.1291
     75 H36        11.3852   -11.7986    95.4610 H          1           0.1410
     76 H37        13.3224   -10.7825    94.8088 H          1           0.3942
@<TRIPOS>BOND
     1    1    2 1
     2    1   44 1
     3    1   45 1
     4    1   46 1
     5    2    3 1
     6    3   42 ar
     7    3    4 ar
     8    4    5 ar
     9    4   47 1
    10    5    6 1
    11    5   40 ar
    12    6    7 1
    13    6   48 1
    14    6   49 1
    15    7    8 1
    16    7   50 1
    17    7   51 1
    18    8    9 1
    19    8   52 1
    20    9   29 ar
    21    9   10 ar
    22   10   11 ar
    23   11   12 1
    24   11   26 ar
    25   12   13 1
    26   12   53 1
    27   13   14 1
    28   13   54 1
    29   13   55 1
    30   14   19 ar
    31   14   15 ar
    32   15   16 ar
    33   15   56 1
    34   16   17 ar
    35   16   57 1
    36   17   18 ar
    37   17   58 1
    38   18   19 ar
    39   18   59 1
    40   19   20 1
    41   20   25 ar
    42   20   21 ar
    43   21   22 ar
    44   21   60 1
    45   22   23 ar
    46   22   61 1
    47   23   24 ar
    48   23   62 1
    49   24   25 ar
    50   24   63 1
    51   25   64 1
    52   26   27 1
    53   26   28 ar
    54   28   29 ar
    55   28   30 1
    56   30   39 1
    57   30   31 1
    58   31   32 1
    59   31   65 1
    60   31   66 1
    61   32   33 1
    62   32   67 1
    63   32   68 1
    64   33   34 1
    65   33   38 1
    66   33   69 1
    67   34   35 1
    68   34   36 1
    69   34   37 1
    70   38   39 1
    71   38   70 1
    72   38   71 1
    73   39   72 1
    74   39   73 1
    75   40   41 ar
    76   40   74 1
    77   41   42 ar
    78   41   75 1
    79   42   43 1
    80   43   76 1
##########                 Name:              T526381
##########          Protonation:                   25
##########               SMILES:   C[NH+](CCCN(C)c1cc(cc[nH+]1)NC(=O)c2cccc(c2)F)Cc3cccc(c3)O
##########            Long Name:   in-1-ium-2-yl]-methyl-amino]propyl-[(3-hydroxyphenyl)methyl]-methyl-ammonium
##########          FlexRecCode: 1
##########               Number:                   43
##########   Ligand Source File: /raidb/db2/rgc/tcams/tcams-0000159.db2.gz
##########           GlobalRank: 173
##########                 Rank:                    1
##########               Setnum:                  182
##########             Matchnum:                  523
##########                Cloud:                    1
##########        Electrostatic:           -46.622917
##########        Van der Waals:           -27.630989
##########  Ligand Polar Desolv:            11.327024
########## Ligand Apolar Desolv:            -3.885946
##########      Internal Energy:             0.000000
##########      Receptor Energy: 0.0
########## Receptor Desolvation:             0.000000
########## Receptor Hydrophobic:             0.000000
##########         Total Energy: -66.81
##########        Ligand Charge:             2.000000
##########            Arbitrary:    +999.9990
##########     heavy atom count:   31
##########           pose count:    1
##########        Ligand Energy:             0.000000
# num electro vdwattr vdwrepu polsolv apolsol rdesolv rhydroe totalscore fullpol fullapo
#   1   -0.22   -0.22    0.01    0.28   -0.07    0.00    0.00      -0.22    2.21   -0.54
#   2    6.66   -0.61    0.06   -4.55    0.33    0.00    0.00       1.88  -23.47    1.68
#   3   -1.88   -0.99    0.32    0.95   -0.11    0.00    0.00      -1.72    3.22   -0.39
#   4    2.92   -0.45    0.04   -1.94   -0.05    0.00    0.00       0.52   -8.50   -0.22
#   5    0.25   -1.18    0.39   -0.07   -0.11    0.00    0.00      -0.71   -0.23   -0.35
#   6    6.47   -0.55    0.05   -3.48    0.07    0.00    0.00       2.56  -16.88    0.33
#   7   -3.88    0.00    0.00    1.06    0.03    0.00    0.00      -2.80   22.00    0.54
#   8    1.26   -0.41    0.03   -0.64   -0.09    0.00    0.00       0.16   -3.16   -0.44
#   9   -0.77   -0.66    0.09    0.81   -0.10    0.00    0.00      -0.64    2.87   -0.36
#  10    0.67   -1.14    0.18   -0.81   -0.09    0.00    0.00      -1.20   -2.85   -0.33
#  11    0.52   -2.52    1.23   -1.17   -0.15    0.00    0.00      -2.09   -2.84   -0.36
#  12    0.35   -2.46    0.87   -1.63   -0.22    0.00    0.00      -3.09   -3.42   -0.47
#  13    0.32   -1.62    0.27   -1.76   -0.20    0.00    0.00      -2.98   -4.09   -0.46
#  14   -0.33   -0.82    0.07    0.19   -0.09    0.00    0.00      -0.97    0.69   -0.31
#  15    1.01   -0.43    0.01   -2.03    0.24    0.00    0.00      -1.20  -10.27    1.19
#  16    0.41   -0.67    0.06   -0.69   -0.10    0.00    0.00      -0.98   -3.33   -0.46
#  17   -7.08   -0.57    0.02    3.83   -0.41    0.00    0.00      -4.21   18.65   -2.01
#  18    4.29   -0.57    0.02   -1.75   -0.09    0.00    0.00       1.90   -8.26   -0.43
#  19   -5.91   -0.76    0.03    2.23   -0.20    0.00    0.00      -4.60    7.66   -0.67
#  20   11.16   -0.97    0.05   -6.08    0.56    0.00    0.00       4.73  -17.71    1.64
#  21   -6.45   -1.06    0.19    3.64   -0.19    0.00    0.00      -3.87   12.21   -0.64
#  22    3.27   -1.04    0.32   -2.30    0.08    0.00    0.00       0.32   -9.65    0.33
#  23    1.50   -1.16    0.10   -0.88   -0.15    0.00    0.00      -0.60   -2.37   -0.41
#  24    0.65   -1.40    0.19   -0.39   -0.16    0.00    0.00      -1.10   -1.09   -0.44
#  25    0.89   -1.48    0.22   -0.73   -0.18    0.00    0.00      -1.28   -1.87   -0.47
#  26    1.63   -1.76    0.25   -1.16   -0.24    0.00    0.00      -1.28   -2.20   -0.46
#  27   -1.72   -2.11    0.47   -0.03   -0.18    0.00    0.00      -3.56   -0.05   -0.34
#  28    2.08   -2.79    2.66   -0.93   -0.30    0.00    0.00       0.72   -1.50   -0.48
#  29    1.35   -1.74    0.53   -0.84   -0.21    0.00    0.00      -0.91   -1.81   -0.45
#  30    4.05   -1.08    0.08   -3.16   -0.16    0.00    0.00      -0.27   -8.04   -0.41
#  31   -4.05   -1.07    0.11    2.98   -0.33    0.00    0.00      -2.35    8.79   -0.97
#  32    9.09   -0.68    0.02   -5.30    0.26    0.00    0.00       3.39  -19.87    0.96
#  33   -6.70   -0.01    0.00    3.11    0.06    0.00    0.00      -3.54   22.32    0.44
#  34   -0.18   -0.06    0.00    0.11   -0.02    0.00    0.00      -0.15    1.80   -0.28
#  35   -0.15   -0.08    0.00    0.31   -0.02    0.00    0.00       0.07    3.62   -0.22
#  36   -0.29   -0.04    0.00    0.21   -0.01    0.00    0.00      -0.13    5.02   -0.28
#  37   -0.97   -0.78    1.40    1.97   -0.07    0.00    0.00       1.55    6.28   -0.21
#  38   -4.20   -0.48    0.18    1.69   -0.08    0.00    0.00      -2.89    5.59   -0.28
#  39   -1.95   -0.08    0.00    0.40   -0.02    0.00    0.00      -1.64    5.02   -0.21
#  40   -0.61   -0.06    0.00    0.41   -0.02    0.00    0.00      -0.29    5.87   -0.28
#  41   -2.07   -0.63    0.56    3.17   -0.09    0.00    0.00       0.94    9.81   -0.28
#  42   -6.74   -1.16    1.83    2.67   -0.10    0.00    0.00      -3.50    7.85   -0.28
#  43   -1.89   -0.06    0.00    0.36   -0.02    0.00    0.00      -1.61    6.38   -0.28
#  44   -3.74   -0.30    0.08    1.61   -0.05    0.00    0.00      -2.41    6.97   -0.22
#  45   -2.50   -0.08    0.00    0.24   -0.02    0.00    0.00      -2.36    2.99   -0.21
#  46   -4.45   -0.46    0.22    2.55   -0.08    0.00    0.00      -2.23    8.74   -0.27
#  47   -2.39   -0.11    0.00    0.87   -0.03    0.00    0.00      -1.66    7.75   -0.28
#  48   -3.03   -1.04    1.39    2.55   -0.11    0.00    0.00      -0.23    6.63   -0.28
#  49   -0.58   -0.66    0.31    1.06   -0.14    0.00    0.00      -0.01    2.14   -0.28
#  50   -0.36   -0.41    0.08    0.26   -0.12    0.00    0.00      -0.55    0.62   -0.28
#  51   -0.75    0.00    0.00    0.50    0.06    0.00    0.00      -0.19    9.42    1.22
#  52   -0.38   -0.06    0.00    0.42   -0.02    0.00    0.00      -0.04    6.52   -0.28
#  53   -3.56   -0.10    0.00    0.72   -0.02    0.00    0.00      -2.96    7.45   -0.21
#  54   -8.39   -0.02    0.00    4.02    0.13    0.00    0.00      -4.26   14.24    0.46
#  55   -0.25   -0.35    0.11    1.77   -0.06    0.00    0.00       1.22    7.08   -0.22
#  56   -1.26   -0.23    0.02    0.94   -0.06    0.00    0.00      -0.59    4.52   -0.28
#  57   -2.74   -0.37    0.04    0.88   -0.13    0.00    0.00      -2.32    1.93   -0.28
#  58   -2.84   -0.70    1.05    0.42   -0.09    0.00    0.00      -2.16    1.22   -0.27
#  59   -5.37   -0.32    0.04    1.11   -0.09    0.00    0.00      -4.63    2.87   -0.22
#  60   -6.83   -0.38    0.13    3.36   -0.08    0.00    0.00      -3.80   11.17   -0.28

@<TRIPOS>MOLECULE
          T526381        25
   60    62     0     0     0



@<TRIPOS>ATOM
      1 C1          1.3126    -7.1122    90.5905 C.3        1           0.0724
      2 N1          2.1762    -6.2239    91.3725 N.pl3      1          -0.5960
      3 C2          3.2056    -5.4261    90.7018 C.3        1           0.1004
      4 C3          4.1855    -6.3568    89.9847 C.3        1          -0.1803
      5 C4          5.2607    -5.5237    89.2841 C.3        1          -0.0103
      6 N2          6.2015    -6.4174    88.5955 N.4        1          -0.3843
      7 H1          5.6927    -7.1762    88.1676 H          1           0.4234
      8 C5          7.1625    -6.9582    89.5662 C.3        1          -0.0596
      9 C6          6.9223    -5.6653    87.5597 C.3        1           0.0457
     10 C7          6.0510    -5.5334    86.3372 C.ar       1          -0.1508
     11 C8          5.9524    -4.3166    85.6873 C.ar       1          -0.1069
     12 C9          5.1544    -4.1925    84.5654 C.ar       1          -0.0924
     13 C10         4.4532    -5.2843    84.0906 C.ar       1          -0.1089
     14 C11         4.5505    -6.5057    84.7406 C.ar       1           0.1209
     15 O1          3.8618    -7.5810    84.2755 O.3        1          -0.4906
     16 C12         5.3563    -6.6291    85.8634 C.ar       1          -0.1256
     17 C13         2.0187    -6.1380    92.7512 C.ar       1           0.4559
     18 C14         3.0785    -6.4675    93.5859 C.ar       1          -0.2376
     19 C15         2.9061    -6.3762    94.9629 C.ar       1           0.3183
     20 N3          3.9452    -6.6973    95.8362 N.am       1          -0.6643
     21 C16         4.8598    -7.6226    95.4844 C.2        1           0.5765
     22 O2          4.7792    -8.1773    94.4058 O.2        1          -0.4853
     23 C17         5.9611    -7.9627    96.4098 C.ar       1          -0.1296
     24 C18         6.5533    -9.2260    96.3602 C.ar       1          -0.0945
     25 C19         7.5806    -9.5384    97.2261 C.ar       1          -0.0907
     26 C20         8.0254    -8.6032    98.1434 C.ar       1          -0.1074
     27 C21         7.4425    -7.3475    98.1993 C.ar       1           0.1046
     28 F1          7.8817    -6.4394    99.0980 F          1          -0.1226
     29 C22         6.4167    -7.0205    97.3329 C.ar       1          -0.0851
     30 C23         1.6670    -5.9546    95.4497 C.ar       1          -0.1716
     31 C24         0.6637    -5.6452    94.5579 C.ar       1           0.1635
     32 N4          0.8608    -5.7374    93.2553 N.ar       1          -0.5200
     33 H2          0.1370    -5.5090    92.6512 H          1           0.4339
     34 H3          0.6143    -7.6190    91.2566 H          1           0.0868
     35 H4          0.7566    -6.5264    89.8586 H          1           0.0922
     36 H5          1.9246    -7.8521    90.0746 H          1           0.0971
     37 H6          2.7356    -4.7638    89.9748 H          1           0.0897
     38 H7          3.7434    -4.8317    91.4405 H          1           0.1245
     39 H8          4.6556    -7.0193    90.7116 H          1           0.1076
     40 H9          3.6477    -6.9513    89.2460 H          1           0.0883
     41 H10         4.7907    -4.8612    88.5571 H          1           0.1357
     42 H11         5.7985    -4.9293    90.0228 H          1           0.1414
     43 H12         7.8608    -7.6213    89.0554 H          1           0.1278
     44 H13         7.7123    -6.1384    90.0286 H          1           0.1218
     45 H14         6.6277    -7.5160    90.3347 H          1           0.1304
     46 H15         7.1710    -4.6737    87.9375 H          1           0.1392
     47 H16         7.8384    -6.1946    87.2978 H          1           0.1414
     48 H17         6.4994    -3.4620    86.0571 H          1           0.1352
     49 H18         5.0786    -3.2412    84.0597 H          1           0.1442
     50 H19         3.8295    -5.1866    83.2141 H          1           0.1454
     51 H20         3.9932    -8.3865    84.7941 H          1           0.4016
     52 H21         5.4372    -7.5801    86.3687 H          1           0.1362
     53 H22         4.0226    -6.7901    93.1721 H          1           0.1837
     54 H23         4.0096    -6.2546    96.6969 H          1           0.4315
     55 H24         6.2074    -9.9578    95.6451 H          1           0.1320
     56 H25         8.0386   -10.5157    97.1880 H          1           0.1498
     57 H26         8.8301    -8.8531    98.8191 H          1           0.1523
     58 H27         5.9659    -6.0399    97.3730 H          1           0.1547
     59 H28         1.4973    -5.8724    96.5132 H          1           0.1948
     60 H29        -0.2967    -5.3189    94.9292 H          1           0.2138
@<TRIPOS>BOND
     1    1    2 1
     2    1   34 1
     3    1   35 1
     4    1   36 1
     5    2    3 1
     6    2   17 1
     7    3    4 1
     8    3   37 1
     9    3   38 1
    10    4    5 1
    11    4   39 1
    12    4   40 1
    13    5    6 1
    14    5   41 1
    15    5   42 1
    16    6    7 1
    17    6    8 1
    18    6    9 1
    19    8   43 1
    20    8   44 1
    21    8   45 1
    22    9   10 1
    23    9   46 1
    24    9   47 1
    25   10   16 ar
    26   10   11 ar
    27   11   12 ar
    28   11   48 1
    29   12   13 ar
    30   12   49 1
    31   13   14 ar
    32   13   50 1
    33   14   15 1
    34   14   16 ar
    35   15   51 1
    36   16   52 1
    37   17   32 ar
    38   17   18 ar
    39   18   19 ar
    40   18   53 1
    41   19   20 1
    42   19   30 ar
    43   20   21 am
    44   20   54 1
    45   21   22 2
    46   21   23 1
    47   23   29 ar
    48   23   24 ar
    49   24   25 ar
    50   24   55 1
    51   25   26 ar
    52   25   56 1
    53   26   27 ar
    54   26   57 1
    55   27   28 1
    56   27   29 ar
    57   29   58 1
    58   30   31 ar
    59   30   59 1
    60   31   32 ar
    61   31   60 1
    62   32   33 1
##########                 Name:              T533127
##########          Protonation:                   26
##########               SMILES:   [H]/N=C/1\[NH+]=C(NC(N1OCCCOc2c(cc(cc2Cl)Cl)Cl)(C)C)N
##########            Long Name:   imethyl-5-[3-(2,4,6-trichlorophenoxy)propoxy]-1H-1,3,5-triazin-3-ium-2-amine
##########          FlexRecCode: 1
##########               Number:                  297
##########   Ligand Source File: /raidb/db2/rgc/tcams/tcams-0001037.db2.gz
##########           GlobalRank: 173
##########                 Rank:                    1
##########               Setnum:                  242
##########             Matchnum:                   61
##########                Cloud:                    1
##########        Electrostatic:           -37.637936
##########        Van der Waals:           -29.073170
##########  Ligand Polar Desolv:             3.818490
########## Ligand Apolar Desolv:            -3.918621
##########      Internal Energy:             0.000000
##########      Receptor Energy: 0.0
########## Receptor Desolvation:             0.000000
########## Receptor Hydrophobic:             0.000000
##########         Total Energy: -66.81
##########        Ligand Charge:             1.000000
##########            Arbitrary:    +999.9990
##########     heavy atom count:   24
##########           pose count:    1
##########        Ligand Energy:             0.000000
# num electro vdwattr vdwrepu polsolv apolsol rdesolv rhydroe totalscore fullpol fullapo
#   1    3.15   -0.53    0.03   -1.14   -0.05    0.00    0.00       1.46   -3.78   -0.16
#   2   -8.38   -0.45    0.01    2.39   -0.10    0.00    0.00      -6.52    9.13   -0.38
#   3    3.39   -0.84    0.15   -1.15   -0.06    0.00    0.00       1.49   -3.56   -0.18
#   4   12.75   -0.54    0.02   -3.83    0.31    0.00    0.00       8.71  -18.44    1.50
#   5  -23.43   -1.27    0.38    5.54   -1.24    0.00    0.00     -20.03   20.97   -4.71
#   6   24.04   -1.36    0.44   -5.94    0.24    0.00    0.00      17.42  -23.05    0.93
#   7   28.96   -3.65    5.74   -5.87    0.39    0.00    0.00      25.57  -15.30    1.02
#   8  -33.86   -0.50    0.82    5.14    0.22    0.00    0.00     -28.17   13.27    0.57
#   9  -21.37   -1.77    0.30    4.99   -2.02    0.00    0.00     -19.87   11.39   -4.61
#  10   25.41   -3.44    0.96   -6.18    0.80    0.00    0.00      17.56  -11.20    1.46
#  11   12.81   -1.08    0.06   -3.21    0.32    0.00    0.00       8.91   -8.80    0.88
#  12    1.70   -1.51    0.20   -0.83    0.20    0.00    0.00      -0.24   -1.82    0.43
#  13   -0.37   -1.17    0.19    0.31   -0.06    0.00    0.00      -1.09    0.67   -0.12
#  14    2.02   -0.82    0.08   -0.45   -0.10    0.00    0.00       0.73   -1.18   -0.25
#  15   -0.77   -1.10    0.17    0.30   -0.05    0.00    0.00      -1.44    0.72   -0.12
#  16    4.02   -0.94    0.05   -0.94    0.30    0.00    0.00       2.49   -2.45    0.79
#  17   -1.23   -1.42    0.17    0.32   -0.10    0.00    0.00      -2.25    0.81   -0.26
#  18    0.21   -1.44    0.19   -0.13   -0.11    0.00    0.00      -1.29   -0.36   -0.29
#  19    0.01   -4.71    4.42   -0.06   -0.33    0.00    0.00      -0.68   -0.19   -0.97
#  20    0.57   -1.51    0.21   -0.29   -0.22    0.00    0.00      -1.23   -0.60   -0.45
#  21    0.15   -1.90    0.53   -0.12   -0.16    0.00    0.00      -1.50   -0.22   -0.30
#  22    0.10   -7.04    4.82   -0.19   -0.62    0.00    0.00      -2.92   -0.31   -0.99
#  23    1.18   -2.26    0.87   -0.32   -0.24    0.00    0.00      -0.78   -0.59   -0.45
#  24    0.52   -1.84    0.34   -0.20   -0.15    0.00    0.00      -1.33   -0.37   -0.29
#  25    0.55   -5.63    1.74   -0.15   -0.59    0.00    0.00      -4.08   -0.24   -0.97
#  26   -1.56   -0.13    0.00    0.18   -0.04    0.00    0.00      -1.54    1.19   -0.27
#  27   -1.16   -0.19    0.02    0.63   -0.05    0.00    0.00      -0.76    3.36   -0.28
#  28   -2.23   -0.26    0.06    0.42   -0.05    0.00    0.00      -2.06    1.90   -0.22
#  29   -2.28   -0.65    0.64    0.28   -0.09    0.00    0.00      -2.09    0.89   -0.28
#  30   -0.94   -0.17    0.02    0.19   -0.04    0.00    0.00      -0.94    1.30   -0.27
#  31   -2.22   -0.26    0.02    0.83   -0.08    0.00    0.00      -1.70    3.04   -0.28
#  32   -4.94   -0.01    0.00    1.00    0.04    0.00    0.00      -3.90   14.41    0.58
#  33   -8.27   -0.01    0.00    1.43    0.06    0.00    0.00      -6.79   15.37    0.59
#  34  -18.73   -0.05    0.00    3.82    0.15    0.00    0.00     -14.81   15.10    0.59
#  35  -16.47   -0.06    0.00    3.45    0.34    0.00    0.00     -12.74    5.96    0.58
#  36   -1.36   -0.71    0.41    0.96   -0.10    0.00    0.00      -0.80    2.07   -0.21
#  37   -0.91   -0.31    0.04    0.26   -0.09    0.00    0.00      -1.01    0.84   -0.28
#  38   -1.75   -0.14    0.00    0.05   -0.03    0.00    0.00      -1.87    0.38   -0.28
#  39   -2.14   -0.42    0.17    0.26   -0.08    0.00    0.00      -2.21    0.95   -0.28
#  40   -0.75   -0.48    0.12    0.47   -0.12    0.00    0.00      -0.75    1.13   -0.28
#  41   -0.14   -0.58    0.24    0.25   -0.10    0.00    0.00      -0.32    0.72   -0.28
#  42   -1.13   -0.28    0.02    0.59   -0.10    0.00    0.00      -0.90    1.63   -0.28
#  43   -2.80   -0.64    0.33    0.73   -0.14    0.00    0.00      -2.52    1.45   -0.28

@<TRIPOS>MOLECULE
          T533127        26
   43    44     0     0     0



@<TRIPOS>ATOM
      1 C1          1.3265    -6.7595    94.5670 C.3        1          -0.1737
      2 C2          2.2530    -5.7462    93.8919 C.3        1           0.4065
      3 C3          1.4257    -4.6712    93.1843 C.3        1          -0.1717
      4 N1          3.1292    -6.4307    92.9234 N.pl3      1          -0.6980
      5 C4          4.2480    -5.7657    92.4914 C.cat      1           0.7437
      6 N2          4.8013    -6.0811    91.2820 N.pl3      1          -0.7850
      7 N3          4.7921    -4.8245    93.2348 N.pl3      1          -0.6211
      8 H1          5.5882    -4.3712    92.9161 H          1           0.4495
      9 C5          4.2703    -4.4751    94.4268 C.2        1           0.5897
     10 N4          4.8294    -3.5282    95.1387 N.2        1          -0.6581
     11 N5          3.1377    -5.1238    94.8954 N.pl3      1          -0.4880
     12 O1          2.8423    -5.1861    96.2789 O.3        1          -0.0674
     13 C6          3.3972    -6.3245    96.9409 C.3        1           0.0193
     14 C7          4.8078    -6.5864    96.4093 C.3        1          -0.1123
     15 C8          5.4019    -7.8051    97.1183 C.3        1           0.0714
     16 O2          6.7192    -8.0497    96.6218 O.3        1          -0.3085
     17 C9          7.3925    -9.1057    97.1515 C.ar       1           0.1155
     18 C10         7.2875   -10.3603    96.5675 C.ar       1          -0.0346
     19 Cl1         6.2967   -10.5831    95.1596 Cl         1          -0.0284
     20 C11         7.9731   -11.4326    97.1078 C.ar       1          -0.0853
     21 C12         8.7632   -11.2556    98.2297 C.ar       1          -0.0170
     22 Cl2         9.6233   -12.6036    98.9056 Cl         1          -0.0296
     23 C13         8.8694   -10.0056    98.8135 C.ar       1          -0.0851
     24 C14         8.1902    -8.9292    98.2732 C.ar       1          -0.0349
     25 Cl3         8.3300    -7.3597    99.0017 Cl         1          -0.0270
     26 H2          0.6774    -7.2136    93.8182 H          1           0.1125
     27 H3          1.9239    -7.5341    95.0478 H          1           0.1014
     28 H4          0.7180    -6.2528    95.3160 H          1           0.0814
     29 H5          2.0938    -3.9544    92.7067 H          1           0.1076
     30 H6          0.7934    -5.1378    92.4289 H          1           0.0658
     31 H7          0.8006    -4.1554    93.9133 H          1           0.0980
     32 H8          2.9213    -7.3222    92.6026 H          1           0.4475
     33 H9          4.4028    -6.7735    90.7321 H          1           0.4449
     34 H10         5.5928    -5.6124    90.9738 H          1           0.4418
     35 H11         5.6214    -3.0763    94.8080 H          1           0.3656
     36 H12         3.4424    -6.1348    98.0134 H          1           0.0680
     37 H13         2.7702    -7.1960    96.7522 H          1           0.0658
     38 H14         4.7625    -6.7760    95.3369 H          1           0.0951
     39 H15         5.4347    -5.7149    96.5981 H          1           0.0937
     40 H16         5.4471    -7.6155    98.1907 H          1           0.0616
     41 H17         4.7748    -8.6766    96.9295 H          1           0.0614
     42 H18         7.8914   -12.4092    96.6540 H          1           0.1589
     43 H19         9.4868    -9.8698    99.6891 H          1           0.1588
@<TRIPOS>BOND
     1    1    2 1
     2    1   26 1
     3    1   27 1
     4    1   28 1
     5    2   11 1
     6    2    3 1
     7    2    4 1
     8    3   29 1
     9    3   30 1
    10    3   31 1
    11    4    5 1
    12    4   32 1
    13    5    6 1
    14    5    7 2
    15    6   33 1
    16    6   34 1
    17    7    8 1
    18    7    9 1
    19    9   10 2
    20    9   11 1
    21   10   35 1
    22   11   12 1
    23   12   13 1
    24   13   14 1
    25   13   36 1
    26   13   37 1
    27   14   15 1
    28   14   38 1
    29   14   39 1
    30   15   16 1
    31   15   40 1
    32   15   41 1
    33   16   17 1
    34   17   24 ar
    35   17   18 ar
    36   18   19 1
    37   18   20 ar
    38   20   21 ar
    39   20   42 1
    40   21   22 1
    41   21   23 ar
    42   23   24 ar
    43   23   43 1
    44   24   25 1
##########                 Name:              T539973
##########          Protonation:                   17
##########               SMILES:   COc1cc(ccc1OCC[NH+]2CCCC2)NC(=O)c3c(cc(s3)c4ccc(cc4)Cl)NC(=O)C[NH+]5CCCC5
##########            Long Name:   hoxy)phenyl]-3-[(2-pyrrolidin-1-ium-1-ylacetyl)amino]thiophene-2-carboxamide
##########          FlexRecCode: 1
##########               Number:                  368
##########   Ligand Source File: /raidb/db2/rgc/tcams/tcams-0002048.db2.gz
##########           GlobalRank: 173
##########                 Rank:                    1
##########               Setnum:                  251
##########             Matchnum:                 2170
##########                Cloud:                    1
##########        Electrostatic:           -54.963955
##########        Van der Waals:           -28.430683
##########  Ligand Polar Desolv:            20.655998
########## Ligand Apolar Desolv:            -4.073187
##########      Internal Energy:             0.000000
##########      Receptor Energy: 0.0
########## Receptor Desolvation:             0.000000
########## Receptor Hydrophobic:             0.000000
##########         Total Energy: -66.81
##########        Ligand Charge:             2.000000
##########            Arbitrary:    +999.9990
##########     heavy atom count:   40
##########           pose count:    1
##########        Ligand Energy:             0.000000
# num electro vdwattr vdwrepu polsolv apolsol rdesolv rhydroe totalscore fullpol fullapo
#   1   -0.80   -2.38    0.87    0.15    0.02    0.00    0.00      -2.14    0.27    0.03
#   2    9.18   -1.90    0.64   -2.52    0.27    0.00    0.00       5.67   -5.77    0.62
#   3   -4.07   -1.22    0.24    0.44   -0.10    0.00    0.00      -4.72    1.32   -0.31
#   4    7.29   -1.99    2.13   -1.09   -0.11    0.00    0.00       6.22   -3.99   -0.42
#   5   -4.44   -0.84    0.15    0.50   -0.15    0.00    0.00      -4.80    2.23   -0.68
#   6   15.47   -0.76    0.09   -2.77    0.37    0.00    0.00      12.40  -12.47    1.68
#   7   -6.74   -0.35    0.01    1.77   -0.09    0.00    0.00      -5.41   11.82   -0.63
#   8    3.36   -0.27    0.01   -1.34    0.04    0.00    0.00       1.79  -10.63    0.31
#   9    1.64   -0.31    0.01   -0.81   -0.04    0.00    0.00       0.49   -5.83   -0.31
#  10   -0.69   -0.57    0.04    0.93   -0.13    0.00    0.00      -0.42    4.73   -0.68
#  11    6.92   -1.35    0.31   -4.70    0.43    0.00    0.00       1.61  -16.79    1.53
#  12   -8.10   -0.98    0.16    3.65   -0.15    0.00    0.00      -5.43   14.79   -0.62
#  13    4.55   -0.37    0.01   -2.50    0.05    0.00    0.00       1.74  -14.51    0.29
#  14    0.74   -1.52    0.65    0.09   -0.13    0.00    0.00      -0.17    0.26   -0.37
#  15    9.77   -0.85    0.09   -4.46    0.11    0.00    0.00       4.66  -13.34    0.33
#  16   -8.97   -0.01    0.00    2.79    0.09    0.00    0.00      -6.10   16.25    0.53
#  17    0.32   -1.49    0.42    0.14   -0.18    0.00    0.00      -0.80    0.31   -0.41
#  18    3.71   -1.16    0.32   -1.75   -0.11    0.00    0.00       1.01   -4.50   -0.29
#  19    2.59   -0.68    0.09   -1.53   -0.10    0.00    0.00       0.38   -4.72   -0.30
#  20    0.15   -0.40    0.02    0.14   -0.10    0.00    0.00      -0.19    0.66   -0.48
#  21    0.42   -0.56    0.05   -0.56   -0.07    0.00    0.00      -0.71   -3.10   -0.39
#  22    0.05   -0.31    0.01   -0.19   -0.04    0.00    0.00      -0.49   -1.55   -0.31
#  23   -0.23   -0.29    0.00    0.18   -0.06    0.00    0.00      -0.39    2.51   -0.78
#  24    0.05   -0.42    0.03   -0.05   -0.06    0.00    0.00      -0.45   -0.32   -0.41
#  25    0.07   -0.49    0.05   -0.18   -0.07    0.00    0.00      -0.62   -1.08   -0.45
#  26    0.11   -0.87    0.21   -0.32   -0.09    0.00    0.00      -0.96   -1.63   -0.46
#  27    0.01   -1.22    0.58   -0.17   -0.07    0.00    0.00      -0.86   -0.75   -0.29
#  28    0.04   -2.26    0.54   -0.29   -0.27    0.00    0.00      -2.24   -1.04   -0.98
#  29    0.15   -0.99    0.28   -0.36   -0.11    0.00    0.00      -1.03   -1.57   -0.46
#  30    0.13   -0.58    0.06   -0.25   -0.08    0.00    0.00      -0.72   -1.40   -0.45
#  31    2.24   -0.57    0.02   -0.58   -0.08    0.00    0.00       1.03   -2.89   -0.40
#  32    2.45   -0.74    0.04   -0.82   -0.11    0.00    0.00       0.82   -3.16   -0.42
#  33   -1.47   -0.87    0.04    0.64   -0.10    0.00    0.00      -1.76    2.04   -0.31
#  34    5.72   -1.20    0.16   -3.49    0.23    0.00    0.00       1.41   -8.62    0.57
#  35   -0.27   -1.52    0.48   -0.05   -0.04    0.00    0.00      -1.39   -0.11   -0.10
#  36   -0.02   -1.49    0.47    0.31   -0.15    0.00    0.00      -0.87    0.79   -0.37
#  37    4.58   -1.10    0.11   -5.38    0.16    0.00    0.00      -1.62  -13.46    0.41
#  38   -6.79   -0.02    0.00    3.44    0.12    0.00    0.00      -3.25   15.15    0.52
#  39    0.14   -1.46    0.39    0.16   -0.22    0.00    0.00      -0.98    0.30   -0.41
#  40    2.41   -1.31    0.21   -2.55   -0.16    0.00    0.00      -1.40   -4.67   -0.29
#  41    1.52   -0.99    0.15   -2.11   -0.14    0.00    0.00      -1.57   -4.56   -0.30
#  42    0.08   -0.85    0.10    0.15   -0.17    0.00    0.00      -0.68    0.42   -0.48
#  43   -2.08   -1.09    0.85    0.68   -0.17    0.00    0.00      -1.80    1.07   -0.26
#  44   -3.21   -1.54    3.32    0.73   -0.16    0.00    0.00      -0.85    1.22   -0.26
#  45   -3.47   -0.78    0.58    1.20   -0.15    0.00    0.00      -2.63    2.17   -0.28
#  46   -6.61   -0.86    2.00    0.72   -0.06    0.00    0.00      -4.81    2.65   -0.22
#  47  -12.89   -0.02    0.00    1.67    0.11    0.00    0.00     -11.14    8.14    0.54
#  48  -12.50   -0.04    0.00    4.18    0.16    0.00    0.00      -8.20   12.46    0.49
#  49   -7.57   -1.23    2.39    3.76   -0.11    0.00    0.00      -2.76    9.06   -0.27
#  50   -6.73   -0.87    0.88    3.33   -0.09    0.00    0.00      -3.48    9.90   -0.28
#  51   -5.65   -0.57    0.20    1.29   -0.10    0.00    0.00      -4.84    2.93   -0.23
#  52   -4.95   -1.07    1.36    2.66   -0.13    0.00    0.00      -2.13    5.50   -0.27
#  53   -2.13   -0.29    0.08    0.43   -0.07    0.00    0.00      -1.98    1.82   -0.28
#  54   -3.52   -0.62    0.41    0.83   -0.12    0.00    0.00      -3.02    1.97   -0.28
#  55   -1.13   -0.11    0.00    0.21   -0.03    0.00    0.00      -1.05    1.96   -0.28
#  56   -2.22   -0.50    0.34    0.83   -0.09    0.00    0.00      -1.64    2.72   -0.28
#  57   -2.66   -0.12    0.01    0.98   -0.03    0.00    0.00      -1.82    7.37   -0.26
#  58   -1.51   -0.06    0.00    0.33   -0.02    0.00    0.00      -1.25    6.21   -0.28
#  59   -0.42   -0.16    0.02    0.51   -0.02    0.00    0.00      -0.08    3.66   -0.18
#  60   -0.14   -0.06    0.00    0.24   -0.02    0.00    0.00       0.03    3.58   -0.24
#  61   -0.12   -0.18    0.04    0.39   -0.05    0.00    0.00       0.07    2.29   -0.28
#  62   -0.21   -0.19    0.02    0.36   -0.06    0.00    0.00      -0.08    1.79   -0.28
#  63   -0.27   -0.09    0.00    0.21   -0.02    0.00    0.00      -0.18    2.63   -0.27
#  64   -2.07   -0.08    0.00    0.23   -0.01    0.00    0.00      -1.94    3.05   -0.20
#  65   -2.10   -0.16    0.01    0.96   -0.04    0.00    0.00      -1.33    5.89   -0.22
#  66   -0.99   -0.69    0.40    2.11   -0.10    0.00    0.00       0.72    4.51   -0.21
#  67   -0.72   -0.60    0.31    1.36   -0.10    0.00    0.00       0.25    3.49   -0.26
#  68    0.20   -1.15    1.04    3.46   -0.12    0.00    0.00       3.44    8.12   -0.27
#  69   -0.36   -0.39    0.21    1.23   -0.07    0.00    0.00       0.62    4.98   -0.28
#  70   -2.22   -0.42    0.06    2.58   -0.13    0.00    0.00      -0.15    5.20   -0.27
#  71   -1.58   -1.34    2.95    2.93   -0.12    0.00    0.00       2.83    6.49   -0.27
#  72   -1.73   -0.54    0.21    0.84   -0.12    0.00    0.00      -1.34    1.99   -0.28
#  73   -2.44   -0.63    0.26    1.18   -0.14    0.00    0.00      -1.77    2.39   -0.28
#  74   -1.12   -0.25    0.02    0.45   -0.08    0.00    0.00      -1.00    1.50   -0.28
#  75   -0.79   -0.55    0.46    0.77   -0.09    0.00    0.00      -0.21    2.32   -0.28
#  76   -0.72   -0.22    0.01    1.30   -0.06    0.00    0.00       0.31    5.78   -0.26
#  77   -1.56   -0.56    0.45    1.07   -0.07    0.00    0.00      -0.67    4.41   -0.28

@<TRIPOS>MOLECULE
          T539973        17
   77    81     0     0     0



@<TRIPOS>ATOM
      1 C1          7.6958    -4.7644    95.3310 C.3        1           0.0216
      2 O1          7.3138    -6.1093    95.0352 O.3        1          -0.3059
      3 C2          6.0682    -6.2990    94.5238 C.ar       1           0.1380
      4 C3          5.8715    -6.2816    93.1529 C.ar       1          -0.2014
      5 C4          4.5989    -6.4755    92.6331 C.ar       1           0.1688
      6 N1          4.3985    -6.4582    91.2475 N.am       1          -0.6623
      7 C5          3.4119    -7.1952    90.7000 C.2        1           0.6208
      8 O2          2.6944    -7.8765    91.4106 O.2        1          -0.5268
      9 C6          3.2091    -7.1777    89.2986 C.2        1          -0.2982
     10 C7          3.9149    -6.4787    88.3198 C.2        1           0.2179
     11 N2          4.9880    -5.6542    88.6629 N.am       1          -0.6299
     12 C8          6.2153    -5.9027    88.1644 C.2        1           0.5039
     13 O3          6.3874    -6.8427    87.4173 O.2        1          -0.5058
     14 C9          7.3735    -5.0128    88.5349 C.3        1          -0.0225
     15 N3          8.5915    -5.4908    87.8669 N.4        1          -0.3825
     16 H1          8.3746    -5.7836    86.9260 H          1           0.4347
     17 C10         9.6012    -4.4160    87.8371 C.3        1          -0.0094
     18 C11        10.9232    -5.1910    87.9967 C.3        1          -0.1439
     19 C12        10.5030    -6.1152    89.1463 C.3        1          -0.1445
     20 C13         9.1629    -6.6117    88.6172 C.3        1          -0.0080
     21 C14         3.5284    -6.6219    87.0097 C.2        1          -0.1850
     22 C15         2.4600    -7.4497    86.7175 C.2        1          -0.0294
     23 S1          1.9894    -8.0507    88.3308 S.3        1           0.1671
     24 C16         1.8632    -7.7628    85.4021 C.ar       1          -0.0375
     25 C17         0.5038    -8.0642    85.3034 C.ar       1          -0.0676
     26 C18        -0.0474    -8.3556    84.0731 C.ar       1          -0.1074
     27 C19         0.7451    -8.3494    82.9372 C.ar       1          -0.0123
     28 Cl1         0.0442    -8.7171    81.3922 Cl         1          -0.0446
     29 C20         2.0940    -8.0508    83.0289 C.ar       1          -0.1043
     30 C21         2.6556    -7.7525    84.2530 C.ar       1          -0.0797
     31 C22         3.5247    -6.6870    93.4874 C.ar       1          -0.1252
     32 C23         3.7208    -6.7043    94.8552 C.ar       1          -0.1431
     33 C24         4.9906    -6.5165    95.3770 C.ar       1           0.0703
     34 O4          5.1829    -6.5394    96.7238 O.3        1          -0.3154
     35 C25         4.8373    -7.7453    97.4080 C.3        1           0.0265
     36 C26         5.6705    -8.9029    96.8539 C.3        1           0.0040
     37 N4          7.0977    -8.6183    97.0537 N.4        1          -0.3958
     38 H2          7.3487    -7.7674    96.5729 H          1           0.4347
     39 C27         7.3846    -8.4828    98.4942 C.3        1          -0.0098
     40 C28         8.8001    -9.0799    98.6135 C.3        1          -0.1448
     41 C29         8.5828   -10.3405    97.7671 C.3        1          -0.1452
     42 C30         7.9027    -9.7321    96.5466 C.3        1          -0.0087
     43 H3          8.7096    -4.7545    95.7316 H          1           0.0611
     44 H4          7.6595    -4.1676    94.4196 H          1           0.0599
     45 H5          7.0100    -4.3453    96.0673 H          1           0.1091
     46 H6          6.7074    -6.1172    92.4890 H          1           0.1458
     47 H7          4.9699    -5.9157    90.6815 H          1           0.4148
     48 H8          4.8504    -4.9025    89.2604 H          1           0.4312
     49 H9          7.1628    -3.9914    88.2183 H          1           0.1636
     50 H10         7.5185    -5.0359    89.6149 H          1           0.1638
     51 H11         9.5753    -3.8872    86.8843 H          1           0.1463
     52 H12         9.4551    -3.7248    88.6671 H          1           0.1299
     53 H13        11.1684    -5.7556    87.0972 H          1           0.1006
     54 H14        11.7411    -4.5326    88.2898 H          1           0.1182
     55 H15        11.2084    -6.9366    89.2719 H          1           0.1083
     56 H16        10.3799    -5.5598    90.0761 H          1           0.1054
     57 H17         8.5084    -6.8839    89.4452 H          1           0.1327
     58 H18         9.3118    -7.4684    87.9599 H          1           0.1368
     59 H19         4.0489    -6.0973    86.2221 H          1           0.1650
     60 H20        -0.1150    -8.0697    86.1885 H          1           0.1375
     61 H21        -1.0990    -8.5893    83.9953 H          1           0.1458
     62 H22         2.7069    -8.0474    82.1396 H          1           0.1472
     63 H23         3.7070    -7.5157    84.3225 H          1           0.1362
     64 H24         2.5350    -6.8377    93.0824 H          1           0.1513
     65 H25         2.8841    -6.8686    95.5180 H          1           0.1388
     66 H26         5.0391    -7.6295    98.4729 H          1           0.0835
     67 H27         3.7782    -7.9565    97.2598 H          1           0.1070
     68 H28         5.4068    -9.8227    97.3759 H          1           0.1485
     69 H29         5.4686    -9.0187    95.7891 H          1           0.1422
     70 H30         7.3806    -7.4344    98.7926 H          1           0.1318
     71 H31         6.6716    -9.0564    99.0864 H          1           0.1341
     72 H32         9.5505    -8.4245    98.1716 H          1           0.0982
     73 H33         9.0453    -9.3276    99.6463 H          1           0.1171
     74 H34         9.5313   -10.8070    97.5009 H          1           0.1063
     75 H35         7.9271   -11.0490    98.2732 H          1           0.1049
     76 H36         7.2626   -10.4710    96.0646 H          1           0.1317
     77 H37         8.6501    -9.3671    95.8421 H          1           0.1339
@<TRIPOS>BOND
     1    1    2 1
     2    1   43 1
     3    1   44 1
     4    1   45 1
     5    2    3 1
     6    3   33 ar
     7    3    4 ar
     8    4    5 ar
     9    4   46 1
    10    5    6 1
    11    5   31 ar
    12    6    7 am
    13    6   47 1
    14    7    8 2
    15    7    9 1
    16    9   23 1
    17    9   10 2
    18   10   11 1
    19   10   21 1
    20   11   12 am
    21   11   48 1
    22   12   13 2
    23   12   14 1
    24   14   15 1
    25   14   49 1
    26   14   50 1
    27   15   16 1
    28   15   20 1
    29   15   17 1
    30   17   18 1
    31   17   51 1
    32   17   52 1
    33   18   19 1
    34   18   53 1
    35   18   54 1
    36   19   20 1
    37   19   55 1
    38   19   56 1
    39   20   57 1
    40   20   58 1
    41   21   22 2
    42   21   59 1
    43   22   23 1
    44   22   24 1
    45   24   30 ar
    46   24   25 ar
    47   25   26 ar
    48   25   60 1
    49   26   27 ar
    50   26   61 1
    51   27   28 1
    52   27   29 ar
    53   29   30 ar
    54   29   62 1
    55   30   63 1
    56   31   32 ar
    57   31   64 1
    58   32   33 ar
    59   32   65 1
    60   33   34 1
    61   34   35 1
    62   35   36 1
    63   35   66 1
    64   35   67 1
    65   36   37 1
    66   36   68 1
    67   36   69 1
    68   37   38 1
    69   37   42 1
    70   37   39 1
    71   39   40 1
    72   39   70 1
    73   39   71 1
    74   40   41 1
    75   40   72 1
    76   40   73 1
    77   41   42 1
    78   41   74 1
    79   41   75 1
    80   42   76 1
    81   42   77 1
##########                 Name:              T537002
##########          Protonation:                   24
##########               SMILES:   C[C@@H](c1ccc(cc1)Cl)C(=O)N[C@@H]2CCN(C2)c3cc[nH+]/c(=N/c4ccc(cc4)F)/[nH]3
##########            Long Name:   -2-(4-fluorophenyl)imino-1H-pyrimidin-3-ium-6-yl]pyrrolidin-3-yl]propanamide
##########          FlexRecCode: 1
##########               Number:                  143
##########   Ligand Source File: /raidb/db2/rgc/tcams/tcams-0001663.db2.gz
##########           GlobalRank: 174
##########                 Rank:                    1
##########               Setnum:                   78
##########             Matchnum:                 2023
##########                Cloud:                    1
##########        Electrostatic:           -47.531097
##########        Van der Waals:           -29.253925
##########  Ligand Polar Desolv:            14.355028
########## Ligand Apolar Desolv:            -4.361565
##########      Internal Energy:             0.000000
##########      Receptor Energy: 0.0
########## Receptor Desolvation:             0.000000
########## Receptor Hydrophobic:             0.000000
##########         Total Energy: -66.79
##########        Ligand Charge:             1.000000
##########            Arbitrary:    +999.9990
##########     heavy atom count:   31
##########           pose count:    1
##########        Ligand Energy:             0.000000
# num electro vdwattr vdwrepu polsolv apolsol rdesolv rhydroe totalscore fullpol fullapo
#   1    3.54   -0.69    0.05   -0.74   -0.06    0.00    0.00       2.09   -2.23   -0.18
#   2    2.11   -0.78    0.08   -0.33   -0.07    0.00    0.00       1.02   -0.93   -0.19
#   3  -14.81   -0.99    0.17    1.79   -0.15    0.00    0.00     -13.99    7.13   -0.59
#   4    8.18   -0.41    0.01   -0.88    0.07    0.00    0.00       6.97   -4.62    0.35
#   5   30.60   -3.18    4.28   -3.93    0.58    0.00    0.00      28.34  -13.45    1.99
#   6   -3.63   -0.68    0.16    0.58   -0.08    0.00    0.00      -3.66    2.47   -0.32
#   7    2.72   -0.32    0.02   -0.49   -0.05    0.00    0.00       1.88   -2.83   -0.29
#   8   -1.79   -0.74    0.15    0.49   -0.13    0.00    0.00      -2.02    1.89   -0.50
#   9   17.11   -1.69    0.57   -4.29    0.53    0.00    0.00      12.24  -14.75    1.82
#  10   -2.71   -1.42    0.69    0.89   -0.13    0.00    0.00      -2.69    2.88   -0.43
#  11  -16.43   -1.67    0.65    4.99   -0.68    0.00    0.00     -13.14   15.04   -2.05
#  12   11.16   -2.11    0.64   -4.01   -0.18    0.00    0.00       5.50   -9.75   -0.44
#  13  -10.64   -2.43    0.73    4.82   -0.45    0.00    0.00      -7.97   10.33   -0.97
#  14   19.46   -3.17    1.94   -6.75    0.45    0.00    0.00      11.93  -15.00    1.01
#  15  -22.47   -0.21    0.07    6.11    0.26    0.00    0.00     -16.24   13.67    0.59
#  16  -13.38   -1.38    0.23    5.27   -1.69    0.00    0.00     -10.96   14.41   -4.62
#  17   14.28   -1.18    0.25   -4.99    0.30    0.00    0.00       8.66  -15.88    0.97
#  18    8.11   -1.21    0.19   -3.81    0.71    0.00    0.00       3.99  -10.95    2.05
#  19   -0.49   -0.73    0.04    0.57   -0.18    0.00    0.00      -0.79    1.86   -0.58
#  20    0.74   -1.69    0.35   -0.88   -0.15    0.00    0.00      -1.63   -2.14   -0.37
#  21   -0.14   -2.17    0.95   -0.56   -0.17    0.00    0.00      -2.10   -1.53   -0.47
#  22    0.16   -1.05    0.28    0.00   -0.09    0.00    0.00      -0.70    0.01   -0.34
#  23   -0.58   -0.64    0.14   -0.32   -0.15    0.00    0.00      -1.56   -1.06   -0.48
#  24    0.14   -0.36    0.02   -0.22   -0.07    0.00    0.00      -0.49   -1.43   -0.47
#  25    0.19   -0.33    0.01   -0.19   -0.06    0.00    0.00      -0.38   -1.42   -0.47
#  26    2.07   -1.00    0.06   -0.20   -0.10    0.00    0.00       0.83   -0.59   -0.30
#  27    2.31   -1.63    0.30   -0.25   -0.16    0.00    0.00       0.56   -0.56   -0.37
#  28    2.51   -2.00    0.98   -0.27   -0.21    0.00    0.00       1.02   -0.60   -0.46
#  29    0.45   -1.62    0.38   -0.12   -0.13    0.00    0.00      -1.05   -0.28   -0.30
#  30    0.92   -4.17    1.10   -0.12   -0.53    0.00    0.00      -2.81   -0.23   -0.99
#  31    1.41   -1.57    0.22   -0.30   -0.19    0.00    0.00      -0.42   -0.72   -0.46
#  32    1.65   -1.00    0.06   -0.30   -0.16    0.00    0.00       0.27   -0.86   -0.45
#  33   -1.78   -0.35    0.07    0.19   -0.07    0.00    0.00      -1.95    0.64   -0.25
#  34   -1.73   -0.25    0.03    0.21   -0.07    0.00    0.00      -1.81    0.87   -0.28
#  35   -1.27   -0.12    0.00    0.28   -0.03    0.00    0.00      -1.13    2.67   -0.26
#  36   -4.58   -0.46    0.12    1.04   -0.10    0.00    0.00      -3.99    2.69   -0.27
#  37  -27.37   -0.38    0.42    3.57    0.18    0.00    0.00     -23.58   10.26    0.53
#  38   -2.10   -0.09    0.00    0.12   -0.02    0.00    0.00      -2.08    1.36   -0.26
#  39   -1.86   -0.08    0.00    0.06   -0.02    0.00    0.00      -1.90    0.78   -0.28
#  40   -1.20   -0.04    0.00    0.07   -0.01    0.00    0.00      -1.18    1.71   -0.28
#  41   -3.54   -0.52    0.28    0.81   -0.09    0.00    0.00      -3.06    2.63   -0.28
#  42   -1.65   -0.12    0.01    0.35   -0.04    0.00    0.00      -1.46    2.41   -0.25
#  43   -1.74   -0.19    0.02    0.75   -0.05    0.00    0.00      -1.21    4.31   -0.28
#  44   -5.88   -1.76    4.35    1.80   -0.11    0.00    0.00      -1.60    4.53   -0.28
#  45   -7.07   -0.81    1.07    2.82   -0.09    0.00    0.00      -4.08    8.15   -0.25
#  46   -8.35   -0.60    0.21    5.01   -0.12    0.00    0.00      -3.85   11.32   -0.28
#  47   -8.07   -0.01    0.00    1.79    0.06    0.00    0.00      -6.23   10.13    0.32
#  48   -0.75   -0.69    0.30    1.52   -0.13    0.00    0.00       0.25    3.26   -0.28
#  49    0.81   -0.75    0.43    0.89   -0.12    0.00    0.00       1.27    2.07   -0.28
#  50   -0.08   -0.04    0.00    0.05   -0.01    0.00    0.00      -0.09    1.31   -0.28
#  51   -0.26   -0.04    0.00    0.08   -0.01    0.00    0.00      -0.24    1.93   -0.28
#  52   -5.74   -0.62    0.56    0.48   -0.11    0.00    0.00      -5.44    1.10   -0.26
#  53   -3.18   -0.51    0.20    0.22   -0.13    0.00    0.00      -3.39    0.49   -0.28
#  54   -0.94   -0.67    0.43    0.32   -0.12    0.00    0.00      -0.97    0.79   -0.28
#  55   -1.94   -0.17    0.01    0.38   -0.05    0.00    0.00      -1.76    2.17   -0.28

@<TRIPOS>MOLECULE
          T537002        24
   55    58     0     0     0



@<TRIPOS>ATOM
      1 C1          2.3605    -4.9662    94.2794 C.3        1          -0.1437
      2 C2          3.8482    -5.0603    93.9346 C.3        1          -0.0668
      3 C3          4.0218    -5.8692    92.6751 C.2        1           0.5233
      4 O1          3.2292    -6.7462    92.4035 O.2        1          -0.5087
      5 N1          5.0578    -5.6182    91.8504 N.am       1          -0.7330
      6 C4          5.2265    -6.4046    90.6259 C.3        1           0.1361
      7 C5          6.1690    -7.6119    90.8744 C.3        1          -0.1420
      8 C6          7.5634    -6.9542    90.7235 C.3        1           0.0689
      9 N2          7.4006    -5.9690    89.6389 N.pl3      1          -0.5578
     10 C7          5.9823    -5.5911    89.5542 C.3        1           0.0848
     11 C8          8.4057    -5.4848    88.8415 C.2        1           0.5626
     12 C9          8.1330    -4.5576    87.8495 C.2        1          -0.3316
     13 C10         9.1728    -4.0851    87.0577 C.2        1           0.2965
     14 N3         10.4050    -4.5152    87.2487 N.pl3      1          -0.5474
     15 H1         11.1199    -4.1761    86.6876 H          1           0.4629
     16 C11        10.6867    -5.4096    88.2016 C.2        1           0.5683
     17 N4          9.6954    -5.9050    89.0158 N.pl3      1          -0.6372
     18 N5         11.9356    -5.8197    88.3661 N.2        1          -0.5045
     19 C12        12.2141    -6.8240    89.2508 C.ar       1           0.0673
     20 C13        12.5036    -6.5240    90.5844 C.ar       1          -0.1412
     21 C14        12.7840    -7.5419    91.4721 C.ar       1          -0.1323
     22 C15        12.7788    -8.8596    91.0438 C.ar       1           0.1096
     23 F1         13.0541    -9.8520    91.9180 F          1          -0.1259
     24 C16        12.4921    -9.1638    89.7228 C.ar       1          -0.1295
     25 C17        12.2049    -8.1554    88.8265 C.ar       1          -0.0707
     26 C18         4.5848    -5.7291    95.0666 C.ar       1          -0.0775
     27 C19         5.9040    -5.4030    95.3207 C.ar       1          -0.0729
     28 C20         6.5801    -6.0164    96.3584 C.ar       1          -0.1101
     29 C21         5.9364    -6.9566    97.1431 C.ar       1          -0.0282
     30 Cl1         6.7849    -7.7270    98.4470 Cl         1          -0.0628
     31 C22         4.6161    -7.2823    96.8886 C.ar       1          -0.1109
     32 C23         3.9394    -6.6643    95.8538 C.ar       1          -0.0971
     33 H2          2.2349    -4.3810    95.1903 H          1           0.0673
     34 H3          1.8278    -4.4825    93.4605 H          1           0.0776
     35 H4          1.9590    -5.9679    94.4325 H          1           0.0618
     36 H5          4.2499    -4.0587    93.7813 H          1           0.1090
     37 H6          5.6916    -4.9169    92.0675 H          1           0.4023
     38 H7          4.2604    -6.7378    90.2470 H          1           0.1327
     39 H8          6.0332    -8.0134    91.8786 H          1           0.1103
     40 H9          6.0189    -8.3862    90.1220 H          1           0.1023
     41 H10         7.8496    -6.4550    91.6494 H          1           0.1025
     42 H11         8.3077    -7.7015    90.4487 H          1           0.0939
     43 H12         5.5934    -5.8303    88.5645 H          1           0.1175
     44 H13         5.8704    -4.5248    89.7510 H          1           0.1092
     45 H14         7.1241    -4.2060    87.6930 H          1           0.1929
     46 H15         8.9706    -3.3619    86.2816 H          1           0.2211
     47 H16         9.9092    -6.5511    89.7070 H          1           0.4443
     48 H17        12.5083    -5.4973    90.9195 H          1           0.1318
     49 H18        13.0082    -7.3113    92.5030 H          1           0.1472
     50 H19        12.4893   -10.1928    89.3952 H          1           0.1516
     51 H20        11.9775    -8.3940    87.7980 H          1           0.1466
     52 H21         6.4063    -4.6690    94.7082 H          1           0.1271
     53 H22         7.6109    -5.7621    96.5565 H          1           0.1354
     54 H23         4.1132    -8.0164    97.5005 H          1           0.1363
     55 H24         2.9074    -6.9152    95.6578 H          1           0.1308
@<TRIPOS>BOND
     1    1    2 1
     2    1   33 1
     3    1   34 1
     4    1   35 1
     5    2    3 1
     6    2   26 1
     7    2   36 1
     8    3    4 2
     9    3    5 am
    10    5    6 1
    11    5   37 1
    12    6   10 1
    13    6    7 1
    14    6   38 1
    15    7    8 1
    16    7   39 1
    17    7   40 1
    18    8    9 1
    19    8   41 1
    20    8   42 1
    21    9   10 1
    22    9   11 1
    23   10   43 1
    24   10   44 1
    25   11   17 1
    26   11   12 2
    27   12   13 1
    28   12   45 1
    29   13   14 2
    30   13   46 1
    31   14   15 1
    32   14   16 1
    33   16   17 1
    34   16   18 2
    35   17   47 1
    36   18   19 1
    37   19   25 ar
    38   19   20 ar
    39   20   21 ar
    40   20   48 1
    41   21   22 ar
    42   21   49 1
    43   22   23 1
    44   22   24 ar
    45   24   25 ar
    46   24   50 1
    47   25   51 1
    48   26   32 ar
    49   26   27 ar
    50   27   28 ar
    51   27   52 1
    52   28   29 ar
    53   28   53 1
    54   29   30 1
    55   29   31 ar
    56   31   32 ar
    57   31   54 1
    58   32   55 1
##########                 Name:              T538724
##########          Protonation:                   11
##########               SMILES:   ccc(cc1)Cl)/[NH+]=C(/NCCCCCC/[NH+]=C(\NC(=[NH2+])Nc2ccc(cc2)Cl)/N(C)C)\N(C)C
##########            Long Name:   chlorophenyl)carbamimidoyl]iminio-(dimethylamino)methyl]amino]hexyl]ammonium
##########          FlexRecCode: 1
##########               Number:                  233
##########   Ligand Source File: /raidb/db2/rgc/tcams/tcams-0001811.db2.gz
##########           GlobalRank: 175
##########                 Rank:                    1
##########               Setnum:                    7
##########             Matchnum:                 4602
##########                Cloud:                    1
##########        Electrostatic:           -44.252563
##########        Van der Waals:           -26.032682
##########  Ligand Polar Desolv:             8.037430
########## Ligand Apolar Desolv:            -4.492040
##########      Internal Energy:             0.000000
##########      Receptor Energy: 0.0
########## Receptor Desolvation:             0.000000
########## Receptor Hydrophobic:             0.000000
##########         Total Energy: -66.74
##########        Ligand Charge:             3.000000
##########            Arbitrary:    +999.9990
##########     heavy atom count:   38
##########           pose count:    1
##########        Ligand Energy:             0.000000
# num electro vdwattr vdwrepu polsolv apolsol rdesolv rhydroe totalscore fullpol fullapo
#   1   -0.32   -0.25    0.03    0.44   -0.06    0.00    0.00      -0.16    3.66   -0.47
#   2    0.87   -0.15    0.00   -1.35    0.04    0.00    0.00      -0.59  -21.97    0.65
#   3   -0.03   -0.10    0.00    0.26   -0.03    0.00    0.00       0.10    4.15   -0.50
#   4   -1.12   -0.13    0.00    1.46   -0.20    0.00    0.00       0.01   28.69   -3.87
#   5    1.30   -0.22    0.00   -2.22    0.15    0.00    0.00      -0.99  -24.52    1.70
#   6   -0.25   -0.36    0.03    0.71   -0.08    0.00    0.00       0.05    3.58   -0.42
#   7    1.72   -0.81    0.14   -1.64   -0.07    0.00    0.00      -0.65   -5.51   -0.22
#   8    2.48   -0.63    0.05   -1.71   -0.07    0.00    0.00       0.13   -5.30   -0.22
#   9    2.39   -0.48    0.02   -1.60   -0.06    0.00    0.00       0.27   -5.45   -0.22
#  10    4.23   -1.07    0.32   -2.25   -0.07    0.00    0.00       1.15   -6.82   -0.22
#  11   -1.95   -1.24    0.62    1.15   -0.13    0.00    0.00      -1.55    3.70   -0.41
#  12   10.66   -0.56    0.04   -6.17    0.32    0.00    0.00       4.28  -31.10    1.60
#  13   -5.53    0.00    0.00    1.49    0.02    0.00    0.00      -4.03   24.63    0.40
#  14  -11.71   -0.44    0.02    6.64   -0.61    0.00    0.00      -6.09   39.21   -3.58
#  15   17.30   -0.86    0.16   -7.95    0.12    0.00    0.00       8.77  -36.74    0.57
#  16  -19.45   -0.88    0.19    9.85   -0.88    0.00    0.00     -11.18   43.16   -3.87
#  17   23.49   -1.24    0.47   -9.63    0.21    0.00    0.00      13.31  -39.58    0.87
#  18  -17.82   -0.03    0.00    5.91    0.13    0.00    0.00     -11.81   26.98    0.59
#  19  -11.82   -0.01    0.00    3.42    0.07    0.00    0.00      -8.35   26.88    0.52
#  20    9.54   -0.72    0.06   -7.46    0.25    0.00    0.00       1.68  -31.07    1.04
#  21   -0.81   -1.00    0.14    1.99   -0.17    0.00    0.00       0.15    7.13   -0.61
#  22    0.99   -1.16    0.17   -1.17   -0.11    0.00    0.00      -1.27   -3.79   -0.36
#  23    0.76   -1.33    0.14   -1.43   -0.17    0.00    0.00      -2.03   -3.88   -0.46
#  24    0.10   -1.41    0.15   -1.15   -0.13    0.00    0.00      -2.44   -2.59   -0.30
#  25    0.17   -5.15    1.96   -2.50   -0.57    0.00    0.00      -6.09   -4.35   -0.99
#  26    1.68   -1.69    0.37   -1.91   -0.20    0.00    0.00      -1.74   -4.43   -0.46
#  27    1.83   -1.48    0.32   -1.20   -0.17    0.00    0.00      -0.70   -3.20   -0.46
#  28    4.92   -0.23    0.00   -2.71    0.19    0.00    0.00       2.18  -28.07    1.95
#  29   -0.26   -0.15    0.01    0.11   -0.05    0.00    0.00      -0.34    1.18   -0.50
#  30   -0.19   -0.15    0.01    0.15   -0.05    0.00    0.00      -0.23    1.66   -0.55
#  31    0.77   -0.11    0.00   -1.18    0.05    0.00    0.00      -0.48  -20.83    0.91
#  32   -0.71    0.00    0.00    0.68    0.01    0.00    0.00      -0.02   16.73    0.30
#  33   -0.54   -0.07    0.00    0.66   -0.16    0.00    0.00      -0.11   19.09   -4.64
#  34    0.53   -0.09    0.00   -0.83    0.03    0.00    0.00      -0.35  -21.93    0.86
#  35    0.50   -0.08    0.00   -0.71    0.04    0.00    0.00      -0.25  -20.60    1.06
#  36   -0.12   -0.18    0.00    0.35   -0.05    0.00    0.00       0.01    4.71   -0.67
#  37    0.15   -0.41    0.04   -0.68   -0.05    0.00    0.00      -0.96   -4.57   -0.36
#  38    0.07   -1.34    0.76   -0.40   -0.11    0.00    0.00      -1.02   -1.66   -0.46
#  39    0.06   -1.22    0.52   -0.57   -0.08    0.00    0.00      -1.28   -2.16   -0.30
#  40    0.08   -4.63    3.17   -1.14   -0.47    0.00    0.00      -2.99   -2.39   -0.99
#  41    0.08   -0.48    0.03   -0.38   -0.07    0.00    0.00      -0.83   -2.41   -0.46
#  42    0.12   -0.21    0.00   -0.28   -0.04    0.00    0.00      -0.40   -3.59   -0.46
#  43   -0.45   -0.07    0.01    0.26   -0.02    0.00    0.00      -0.27    3.54   -0.28
#  44   -0.19   -0.07    0.01    0.20   -0.02    0.00    0.00      -0.08    2.98   -0.27
#  45   -0.17   -0.12    0.02    0.09   -0.02    0.00    0.00      -0.20    0.97   -0.28
#  46   -0.04   -0.01    0.00    0.04   -0.01    0.00    0.00      -0.02    2.13   -0.27
#  47    0.01   -0.04    0.00    0.04   -0.01    0.00    0.00       0.01    1.18   -0.21
#  48    0.00   -0.04    0.00    0.11   -0.01    0.00    0.00       0.06    2.71   -0.28
#  49   -0.88    0.00    0.00    0.85    0.02    0.00    0.00      -0.01   19.51    0.57
#  50   -0.23   -0.12    0.01    0.55   -0.03    0.00    0.00       0.18    4.18   -0.23
#  51   -0.33   -0.13    0.02    0.48   -0.03    0.00    0.00       0.02    4.40   -0.28
#  52   -0.51   -0.30    0.08    0.91   -0.07    0.00    0.00       0.11    3.84   -0.28
#  53   -1.86   -0.49    0.16    1.17   -0.10    0.00    0.00      -1.12    3.31   -0.28
#  54   -1.23   -0.12    0.00    0.28   -0.03    0.00    0.00      -1.10    2.39   -0.28
#  55   -2.42   -0.38    0.09    0.89   -0.09    0.00    0.00      -1.91    2.81   -0.28
#  56   -1.60   -0.20    0.02    0.77   -0.06    0.00    0.00      -1.07    3.70   -0.28
#  57   -1.00   -0.08    0.00    0.22   -0.02    0.00    0.00      -0.88    2.96   -0.28
#  58   -3.65   -0.73    0.60    1.28   -0.11    0.00    0.00      -2.62    3.29   -0.28
#  59   -2.49   -0.26    0.04    0.94   -0.06    0.00    0.00      -1.83    4.33   -0.28
#  60   -2.63   -0.36    0.16    2.23   -0.07    0.00    0.00      -0.68    8.57   -0.28
#  61   -4.54   -1.03    1.37    2.53   -0.10    0.00    0.00      -1.76    7.03   -0.27
#  62  -14.18   -0.02    0.00    4.61    0.07    0.00    0.00      -9.51   26.14    0.42
#  63   -5.10   -0.01    0.00    2.52    0.06    0.00    0.00      -2.52   25.03    0.59
#  64   -0.30   -0.31    0.09    2.38   -0.04    0.00    0.00       1.81   11.11   -0.19
#  65   -0.91   -0.43    0.12    1.46   -0.08    0.00    0.00       0.15    4.84   -0.28
#  66   -3.75   -0.65    0.75    1.28   -0.13    0.00    0.00      -2.49    2.87   -0.28
#  67   -6.01   -0.46    0.25    2.50   -0.09    0.00    0.00      -3.81    7.67   -0.28
#  68   -0.41   -0.03    0.00    0.18   -0.01    0.00    0.00      -0.26    5.77   -0.22
#  69   -0.77   -0.03    0.00    0.12   -0.01    0.00    0.00      -0.68    3.97   -0.27
#  70   -0.67   -0.10    0.01    0.58   -0.02    0.00    0.00      -0.20    6.15   -0.26
#  71   -0.08   -0.05    0.00    0.33   -0.02    0.00    0.00       0.18    6.04   -0.28
#  72   -0.65   -0.07    0.00    0.25   -0.02    0.00    0.00      -0.47    3.65   -0.27
#  73   -0.40   -0.02    0.00    0.18   -0.01    0.00    0.00      -0.25    6.12   -0.21
#  74   -0.24    0.00    0.00    0.20    0.01    0.00    0.00      -0.03   10.08    0.59
#  75   -0.23    0.00    0.00    0.21    0.01    0.00    0.00      -0.02   12.81    0.59
#  76   -0.08   -0.06    0.00    0.51   -0.01    0.00    0.00       0.36    7.15   -0.21
#  77   -0.12   -0.53    0.37    1.56   -0.08    0.00    0.00       1.21    5.36   -0.28
#  78   -0.20   -0.10    0.00    0.17   -0.02    0.00    0.00      -0.15    2.28   -0.28
#  79   -0.13   -0.02    0.00    0.09   -0.01    0.00    0.00      -0.07    3.70   -0.28

@<TRIPOS>MOLECULE
          T538724        11
   79    80     0     0     0



@<TRIPOS>ATOM
      1 C1         10.7829   -10.1512    90.1342 C.3        1           0.1025
      2 N1         11.2530   -10.6028    88.8223 N.pl3      1          -0.6266
      3 C2         12.2252   -11.6947    88.7286 C.3        1           0.1158
      4 C3         10.7844   -10.0056    87.6856 C.cat      1           0.7757
      5 N2         10.9804    -8.6676    87.4859 N.pl3      1          -0.6591
      6 C4         10.4782    -8.0275    86.2676 C.3        1           0.0996
      7 C5         10.8276    -6.5382    86.2928 C.3        1          -0.1392
      8 C6         10.1827    -5.8834    87.5160 C.3        1          -0.1181
      9 C7          8.6636    -6.0495    87.4418 C.3        1          -0.1176
     10 C8          8.0186    -5.3947    88.6649 C.3        1          -0.1416
     11 C9          8.5431    -6.0631    89.9373 C.3        1           0.0693
     12 N3          8.2084    -7.4892    89.9134 N.pl3      1          -0.5967
     13 H1          8.8252    -8.1256    89.5191 H          1           0.4501
     14 C10         7.0825    -7.9025    90.4215 C.cat      1           0.6928
     15 N4          6.2054    -6.9975    90.9822 N.pl3      1          -0.6748
     16 C11         5.8498    -7.1134    92.3100 C.cat      1           0.7523
     17 N5          5.0216    -6.2588    92.8394 N.pl3      1          -0.7433
     18 H2          4.6550    -5.5409    92.3000 H          1           0.4629
     19 H3          4.7716    -6.3403    93.7731 H          1           0.4445
     20 N6          6.3702    -8.1319    93.0753 N.pl3      1          -0.5826
     21 C12         6.5590    -7.9483    94.4495 C.ar       1           0.0503
     22 C13         6.4770    -9.0322    95.3138 C.ar       1          -0.1276
     23 C14         6.6643    -8.8485    96.6697 C.ar       1          -0.0836
     24 C15         6.9334    -7.5855    97.1674 C.ar       1          -0.0067
     25 Cl1         7.1683    -7.3580    98.8723 Cl         1          -0.0106
     26 C16         7.0161    -6.5038    96.3083 C.ar       1          -0.0791
     27 C17         6.8345    -6.6829    94.9510 C.ar       1          -0.0720
     28 N7          6.7684    -9.2406    90.3990 N.pl3      1          -0.5434
     29 C18         7.8346   -10.2441    90.4451 C.3        1           0.0407
     30 C19         5.3674    -9.6630    90.3293 C.3        1           0.0427
     31 N8         10.1428   -10.7205    86.7810 N.pl3      1          -0.5811
     32 H4          9.8943   -10.3200    85.9332 H          1           0.4394
     33 C20         9.8329   -12.0080    87.0351 C.2        1           0.5941
     34 N9          9.6079   -12.3972    88.2656 N.2        1          -0.7163
     35 N10         9.7524   -12.9169    85.9976 N.pl3      1          -0.6846
     36 C21         9.9925   -12.5013    84.6834 C.ar       1           0.1396
     37 C22         8.9991   -12.6282    83.7212 C.ar       1          -0.1854
     38 C23         9.2387   -12.2172    82.4247 C.ar       1          -0.0710
     39 C24        10.4673   -11.6792    82.0840 C.ar       1          -0.0465
     40 Cl2        10.7652   -11.1637    80.4533 Cl         1          -0.0399
     41 C25        11.4588   -11.5513    83.0408 C.ar       1          -0.0632
     42 C26        11.2226   -11.9558    84.3401 C.ar       1          -0.1176
     43 H5         10.0692    -9.3377    90.0043 H          1           0.0729
     44 H6         10.2992   -10.9797    90.6520 H          1           0.0674
     45 H7         11.6305    -9.8002    90.7229 H          1           0.0903
     46 H8         12.4533   -11.8891    87.6806 H          1           0.0998
     47 H9         13.1385   -11.4138    89.2531 H          1           0.0765
     48 H10        11.8074   -12.5933    89.1824 H          1           0.0543
     49 H11        11.4521    -8.1422    88.1509 H          1           0.4271
     50 H12        10.9377    -8.4939    85.3962 H          1           0.0987
     51 H13         9.3958    -8.1458    86.2148 H          1           0.1008
     52 H14        11.9099    -6.4198    86.3456 H          1           0.0826
     53 H15        10.4538    -6.0619    85.3864 H          1           0.0824
     54 H16        10.5564    -6.3596    88.4225 H          1           0.0775
     55 H17        10.4317    -4.8224    87.5338 H          1           0.0774
     56 H18         8.2898    -5.5733    86.5352 H          1           0.0759
     57 H19         8.4145    -7.1105    87.4240 H          1           0.0772
     58 H20         8.2677    -4.3337    88.6828 H          1           0.0918
     59 H21         6.9363    -5.5129    88.6120 H          1           0.0907
     60 H22         9.6254    -5.9448    89.9903 H          1           0.1113
     61 H23         8.0835    -5.5966    90.8088 H          1           0.1125
     62 H24         5.8387    -6.2796    90.4427 H          1           0.4693
     63 H25         6.6063    -8.9771    92.6620 H          1           0.4597
     64 H26         6.2666   -10.0180    94.9260 H          1           0.1366
     65 H27         6.6002    -9.6910    97.3424 H          1           0.1592
     66 H28         7.2263    -5.5192    96.6993 H          1           0.1633
     67 H29         6.9029    -5.8389    94.2806 H          1           0.1566
     68 H30         7.3961   -11.2417    90.4185 H          1           0.0971
     69 H31         8.4935   -10.1139    89.5866 H          1           0.1369
     70 H32         8.4078   -10.1235    91.3644 H          1           0.0892
     71 H33         5.3162   -10.7517    90.3209 H          1           0.1120
     72 H34         4.8289    -9.2808    91.1966 H          1           0.1328
     73 H35         4.9145    -9.2709    89.4187 H          1           0.0928
     74 H36         9.3155   -13.3052    88.4414 H          1           0.3697
     75 H37         9.5294   -13.8431    86.1803 H          1           0.4378
     76 H38         8.0401   -13.0484    83.9866 H          1           0.1290
     77 H39         8.4666   -12.3161    81.6759 H          1           0.1472
     78 H40        12.4166   -11.1307    82.7723 H          1           0.1521
     79 H41        11.9952   -11.8515    85.0876 H          1           0.1476
@<TRIPOS>BOND
     1    1    2 1
     2    1   43 1
     3    1   44 1
     4    1   45 1
     5    2    3 1
     6    2    4 1
     7    3   46 1
     8    3   47 1
     9    3   48 1
    10    4    5 1
    11    4   31 2
    12    5    6 1
    13    5   49 1
    14    6    7 1
    15    6   50 1
    16    6   51 1
    17    7    8 1
    18    7   52 1
    19    7   53 1
    20    8    9 1
    21    8   54 1
    22    8   55 1
    23    9   10 1
    24    9   56 1
    25    9   57 1
    26   10   11 1
    27   10   58 1
    28   10   59 1
    29   11   12 1
    30   11   60 1
    31   11   61 1
    32   12   13 1
    33   12   14 2
    34   14   15 1
    35   14   28 1
    36   15   16 1
    37   15   62 1
    38   16   17 2
    39   16   20 1
    40   17   18 1
    41   17   19 1
    42   20   21 1
    43   20   63 1
    44   21   27 ar
    45   21   22 ar
    46   22   23 ar
    47   22   64 1
    48   23   24 ar
    49   23   65 1
    50   24   25 1
    51   24   26 ar
    52   26   27 ar
    53   26   66 1
    54   27   67 1
    55   28   29 1
    56   28   30 1
    57   29   68 1
    58   29   69 1
    59   29   70 1
    60   30   71 1
    61   30   72 1
    62   30   73 1
    63   31   32 1
    64   31   33 1
    65   33   34 2
    66   33   35 1
    67   34   74 1
    68   35   36 1
    69   35   75 1
    70   36   42 ar
    71   36   37 ar
    72   37   38 ar
    73   37   76 1
    74   38   39 ar
    75   38   77 1
    76   39   40 1
    77   39   41 ar
    78   41   42 ar
    79   41   78 1
    80   42   79 1
##########                 Name:              T536692
##########          Protonation:                   99
##########               SMILES:   COC(=O)c1cccc(c1)C#CCCOCCCCCC[NH2+]C[C@@H](c2cc(c(c(c2)Cl)N)Cl)O
##########            Long Name:   )-2-hydroxy-ethyl]-[6-[4-(3-methoxycarbonylphenyl)but-3-ynoxy]hexyl]ammonium
##########          FlexRecCode: 1
##########               Number:                  184
##########   Ligand Source File: /raidb/db2/rgc/tcams/tcams-0001508.db2.gz
##########           GlobalRank: 176
##########                 Rank:                    1
##########               Setnum:                  106
##########             Matchnum:                 2096
##########                Cloud:                    1
##########        Electrostatic:           -43.927048
##########        Van der Waals:           -26.844585
##########  Ligand Polar Desolv:             5.929971
########## Ligand Apolar Desolv:            -1.873669
##########      Internal Energy:             0.000000
##########      Receptor Energy: 0.0
########## Receptor Desolvation:             0.000000
########## Receptor Hydrophobic:             0.000000
##########         Total Energy: -66.72
##########        Ligand Charge:             1.000000
##########            Arbitrary:    +999.9990
##########     heavy atom count:   34
##########           pose count:    1
##########        Ligand Energy:             0.000000
# num electro vdwattr vdwrepu polsolv apolsol rdesolv rhydroe totalscore fullpol fullapo
#   1   -1.18   -1.55    0.37    0.04    0.02    0.00    0.00      -2.30    0.08    0.04
#   2    8.76   -0.90    0.06   -0.29    0.12    0.00    0.00       7.74   -0.78    0.31
#   3   -8.85   -0.87    0.07    0.00   -0.05    0.00    0.00      -9.69   -0.01   -0.16
#   4    4.05   -1.65    0.71    0.58   -0.13    0.00    0.00       3.56    1.74   -0.39
#   5    1.48   -0.38    0.01   -0.05   -0.06    0.00    0.00       1.00   -0.32   -0.41
#   6    0.47   -0.27    0.01   -0.03   -0.05    0.00    0.00       0.12   -0.24   -0.46
#   7    0.72   -0.15    0.00   -0.05   -0.03    0.00    0.00       0.50   -0.81   -0.47
#   8    0.29   -0.11    0.00   -0.02   -0.02    0.00    0.00       0.14   -0.32   -0.45
#   9   -0.02   -0.13    0.00    0.00   -0.02    0.00    0.00      -0.17   -0.07   -0.40
#  10    0.28   -0.25    0.00   -0.01   -0.04    0.00    0.00      -0.02   -0.10   -0.43
#  11    0.36   -0.11    0.00   -0.03   -0.04    0.00    0.00       0.19   -0.49   -0.71
#  12    0.10   -0.13    0.00   -0.03   -0.04    0.00    0.00      -0.10   -0.48   -0.72
#  13    0.00   -0.12    0.00    0.00   -0.02    0.00    0.00      -0.13   -0.02   -0.26
#  14   -0.07   -0.10    0.00    0.03   -0.01    0.00    0.00      -0.14    0.49   -0.11
#  15    0.69   -0.17    0.00   -0.24    0.12    0.00    0.00       0.39   -2.78    1.34
#  16   -0.10   -0.23    0.01    0.05   -0.02    0.00    0.00      -0.28    0.36   -0.12
#  17    0.67   -0.46    0.08   -0.29   -0.05    0.00    0.00      -0.04   -1.46   -0.24
#  18    1.59   -0.59    0.12   -0.46   -0.05    0.00    0.00       0.61   -2.02   -0.22
#  19    2.44   -0.99    0.31   -0.83   -0.07    0.00    0.00       0.87   -2.67   -0.22
#  20    5.39   -1.34    0.43   -1.58   -0.09    0.00    0.00       2.82   -4.14   -0.24
#  21    0.31   -0.64    0.10    0.16   -0.10    0.00    0.00      -0.17    0.63   -0.40
#  22   20.19   -1.98    2.65   -6.09    0.26    0.00    0.00      15.02  -17.37    0.73
#  23  -26.84   -0.25    0.24    5.22    0.16    0.00    0.00     -21.48   16.73    0.52
#  24  -16.84   -0.03    0.00    5.33    0.18    0.00    0.00     -11.36   17.36    0.57
#  25    1.13   -0.73    0.10   -0.17   -0.11    0.00    0.00       0.22   -0.55   -0.38
#  26   -2.10   -0.59    0.04    1.34   -0.05    0.00    0.00      -1.36    4.33   -0.15
#  27   10.30   -1.02    0.09   -5.93    0.62    0.00    0.00       4.06  -15.30    1.61
#  28    1.90   -1.15    0.10   -1.01   -0.12    0.00    0.00      -0.28   -2.89   -0.34
#  29    0.15   -1.62    0.43   -0.24   -0.15    0.00    0.00      -1.43   -0.69   -0.42
#  30    0.54   -1.48    0.20   -0.72   -0.11    0.00    0.00      -1.58   -1.88   -0.29
#  31    0.23   -4.12    2.08   -0.47   -0.43    0.00    0.00      -2.72   -1.03   -0.94
#  32   -2.37   -1.57    0.33    0.85   -0.32    0.00    0.00      -3.08    1.95   -0.73
#  33    7.51   -1.75    0.31   -4.20    0.48    0.00    0.00       2.34   -7.76    0.88
#  34    1.48   -1.66    0.27   -0.95   -0.15    0.00    0.00      -1.01   -1.87   -0.29
#  35    0.86   -5.45    2.18   -0.61   -0.56    0.00    0.00      -3.58   -1.02   -0.94
#  36    0.46   -1.40    0.13   -0.29   -0.20    0.00    0.00      -1.30   -0.65   -0.44
#  37   -2.68   -0.97    1.16    0.10   -0.13    0.00    0.00      -2.53    0.21   -0.28
#  38   -1.83   -0.43    0.10    0.08   -0.11    0.00    0.00      -2.19    0.21   -0.28
#  39   -4.51   -0.77    0.38    0.61   -0.13    0.00    0.00      -4.43    1.28   -0.28
#  40   -1.30   -0.06    0.00    0.07   -0.02    0.00    0.00      -1.30    1.29   -0.27
#  41   -0.49   -0.02    0.00    0.06   -0.01    0.00    0.00      -0.46    2.10   -0.28
#  42   -0.40   -0.02    0.00    0.03   -0.01    0.00    0.00      -0.39    1.35   -0.28
#  43   -0.91   -0.06    0.00    0.00   -0.02    0.00    0.00      -0.99   -0.05   -0.27
#  44   -0.06   -0.02    0.00    0.02   -0.01    0.00    0.00      -0.07    0.93   -0.28
#  45   -0.04   -0.09    0.01    0.08   -0.02    0.00    0.00      -0.06    0.93   -0.28
#  46   -0.06   -0.02    0.00    0.01   -0.01    0.00    0.00      -0.08    0.33   -0.28
#  47   -0.06   -0.03    0.00    0.01   -0.01    0.00    0.00      -0.09    0.34   -0.28
#  48   -0.08   -0.08    0.00    0.04   -0.02    0.00    0.00      -0.14    0.52   -0.28
#  49   -0.08   -0.06    0.00    0.03   -0.02    0.00    0.00      -0.12    0.52   -0.28
#  50   -0.30   -0.33    0.23    0.13   -0.05    0.00    0.00      -0.33    0.67   -0.28
#  51   -0.53   -0.09    0.00    0.06   -0.03    0.00    0.00      -0.59    0.66   -0.28
#  52   -0.89   -0.07    0.00    0.08   -0.02    0.00    0.00      -0.90    1.12   -0.28
#  53   -1.05   -0.29    0.10    0.26   -0.06    0.00    0.00      -1.04    1.14   -0.28
#  54   -1.25   -0.87    1.16    0.48   -0.09    0.00    0.00      -0.57    1.49   -0.28
#  55   -1.53   -0.14    0.01    0.21   -0.04    0.00    0.00      -1.50    1.46   -0.28
#  56   -4.54   -1.15    1.58    1.07   -0.11    0.00    0.00      -3.15    2.74   -0.28
#  57   -3.25   -0.41    0.07    1.09   -0.11    0.00    0.00      -2.60    2.85   -0.28
#  58   -2.77   -0.11    0.00    0.48   -0.03    0.00    0.00      -2.43    5.05   -0.28
#  59   -3.14   -0.12    0.01    0.54   -0.03    0.00    0.00      -2.74    4.91   -0.28
#  60   -3.02   -0.15    0.01    0.93   -0.04    0.00    0.00      -2.27    5.96   -0.28
#  61   -3.65   -0.46    0.24    1.65   -0.08    0.00    0.00      -2.31    5.55   -0.28
#  62   -0.91   -0.23    0.07    0.81   -0.05    0.00    0.00      -0.31    4.86   -0.28
#  63   -9.03   -0.02    0.00    2.48    0.21    0.00    0.00      -6.35   11.70    1.00
#  64    0.13   -0.56    0.45    1.09   -0.06    0.00    0.00       1.06    4.35   -0.23
#  65   -3.03   -0.02    0.00    1.55    0.22    0.00    0.00      -1.28    3.49    0.50
#  66   -4.23   -0.03    0.00    1.53    0.22    0.00    0.00      -2.51    3.45    0.50
#  67   -2.38   -0.32    0.05    1.32   -0.09    0.00    0.00      -1.42    4.04   -0.28

@<TRIPOS>MOLECULE
          T536692        99
   67    68     0     0     0



@<TRIPOS>ATOM
      1 C1          8.7010    -3.9407    86.5275 C.3        1           0.0339
      2 O1          8.6247    -5.3057    86.9432 O.3        1          -0.3475
      3 C2          7.4082    -5.7750    87.2816 C.2        1           0.5088
      4 O2          6.4387    -5.0454    87.2253 O.2        1          -0.5025
      5 C3          7.2532    -7.1770    87.7211 C.ar       1          -0.1244
      6 C4          8.3683    -8.0162    87.7919 C.ar       1          -0.0510
      7 C5          8.2247    -9.3262    88.2018 C.ar       1          -0.1270
      8 C6          6.9800    -9.8166    88.5451 C.ar       1          -0.0592
      9 C7          5.8574    -8.9890    88.4793 C.ar       1           0.0041
     10 C8          5.9954    -7.6643    88.0715 C.ar       1          -0.0330
     11 C9          4.5678    -9.4997    88.8351 C.1        1          -0.1334
     12 C10         3.5104    -9.9183    89.1267 C.1        1          -0.1495
     13 C11         2.1847   -10.4432    89.4925 C.3        1          -0.0038
     14 C12         1.1374    -9.3394    89.3332 C.3        1           0.0676
     15 O3          1.4676    -8.2424    90.1875 O.3        1          -0.3884
     16 C13         0.8532    -7.0080    89.8124 C.3        1           0.0614
     17 C14         0.8486    -6.0559    91.0100 C.3        1          -0.1204
     18 C15         2.2876    -5.7936    91.4586 C.3        1          -0.1190
     19 C16         2.2830    -4.8416    92.6563 C.3        1          -0.1167
     20 C17         3.7220    -4.5792    93.1049 C.3        1          -0.1505
     21 C18         4.3800    -5.9008    93.5066 C.3        1          -0.0104
     22 N1          5.7616    -5.6489    93.9372 N.4        1          -0.5060
     23 H1          6.2798    -5.2322    93.1782 H          1           0.4318
     24 H2          5.7586    -5.0211    94.7271 H          1           0.4293
     25 C19         6.3935    -6.9178    94.3227 C.3        1          -0.0449
     26 C20         5.6078    -7.5499    95.4734 C.3        1           0.1467
     27 O4          5.2021    -6.5310    96.3894 O.3        1          -0.5469
     28 C21         6.4804    -8.5493    96.1880 C.ar       1          -0.1887
     29 C22         6.4947    -9.8699    95.7782 C.ar       1          -0.0383
     30 C23         7.2935   -10.7895    96.4314 C.ar       1          -0.1089
     31 Cl1         7.3105   -12.4471    95.9160 Cl         1          -0.0413
     32 C24         8.0831   -10.3854    97.5012 C.ar       1           0.2619
     33 N2          8.8928   -11.3128    98.1642 N.pl3      1          -0.8496
     34 C25         8.0665    -9.0575    97.9100 C.ar       1          -0.1100
     35 Cl2         9.0513    -8.5469    99.2452 Cl         1          -0.0408
     36 C26         7.2691    -8.1424    97.2485 C.ar       1          -0.0331
     37 H3          9.7340    -3.6919    86.2845 H          1           0.0630
     38 H4          8.0751    -3.7933    85.6473 H          1           0.0630
     39 H5          8.3519    -3.2953    87.3336 H          1           0.1069
     40 H6          9.3443    -7.6388    87.5249 H          1           0.1450
     41 H7          9.0895    -9.9710    88.2542 H          1           0.1419
     42 H8          6.8747   -10.8429    88.8646 H          1           0.1363
     43 H9          5.1307    -7.0188    88.0229 H          1           0.1411
     44 H10         1.9327   -11.2798    88.8408 H          1           0.1001
     45 H11         2.2011   -10.7818    90.5284 H          1           0.1001
     46 H12         1.1210    -9.0007    88.2972 H          1           0.0561
     47 H13         0.1557    -9.7280    89.6039 H          1           0.0561
     48 H14         1.4128    -6.5579    88.9925 H          1           0.0503
     49 H15        -0.1720    -7.1949    89.4928 H          1           0.0503
     50 H16         0.3798    -5.1144    90.7238 H          1           0.0740
     51 H17         0.2887    -6.5061    91.8298 H          1           0.0740
     52 H18         2.7562    -6.7352    91.7448 H          1           0.0692
     53 H19         2.8473    -5.3436    90.6388 H          1           0.0692
     54 H20         1.8143    -3.9000    92.3700 H          1           0.0761
     55 H21         1.7232    -5.2916    93.4760 H          1           0.0760
     56 H22         4.2818    -4.1290    92.2850 H          1           0.0885
     57 H23         3.7186    -3.9009    93.9581 H          1           0.0886
     58 H24         3.8202    -6.3509    94.3263 H          1           0.1325
     59 H25         4.3833    -6.5792    92.6532 H          1           0.1318
     60 H26         6.3967    -7.5959    93.4694 H          1           0.1454
     61 H27         7.4187    -6.7309    94.6422 H          1           0.1371
     62 H28         4.7265    -8.0545    95.0777 H          1           0.1334
     63 H29         4.6366    -5.8518    95.9970 H          1           0.3881
     64 H30         5.8807   -10.1832    94.9467 H          1           0.1382
     65 H31         8.9036   -12.2394    97.8777 H          1           0.4116
     66 H32         9.4435   -11.0296    98.9107 H          1           0.4117
     67 H33         7.2587    -7.1093    97.5631 H          1           0.1438
@<TRIPOS>BOND
     1    1    2 1
     2    1   37 1
     3    1   38 1
     4    1   39 1
     5    2    3 1
     6    3    4 2
     7    3    5 1
     8    5   10 ar
     9    5    6 ar
    10    6    7 ar
    11    6   40 1
    12    7    8 ar
    13    7   41 1
    14    8    9 ar
    15    8   42 1
    16    9   10 ar
    17    9   11 1
    18   10   43 1
    19   11   12 3
    20   12   13 1
    21   13   14 1
    22   13   44 1
    23   13   45 1
    24   14   15 1
    25   14   46 1
    26   14   47 1
    27   15   16 1
    28   16   17 1
    29   16   48 1
    30   16   49 1
    31   17   18 1
    32   17   50 1
    33   17   51 1
    34   18   19 1
    35   18   52 1
    36   18   53 1
    37   19   20 1
    38   19   54 1
    39   19   55 1
    40   20   21 1
    41   20   56 1
    42   20   57 1
    43   21   22 1
    44   21   58 1
    45   21   59 1
    46   22   23 1
    47   22   24 1
    48   22   25 1
    49   25   26 1
    50   25   60 1
    51   25   61 1
    52   26   27 1
    53   26   28 1
    54   26   62 1
    55   27   63 1
    56   28   36 ar
    57   28   29 ar
    58   29   30 ar
    59   29   64 1
    60   30   31 1
    61   30   32 ar
    62   32   33 1
    63   32   34 ar
    64   33   65 1
    65   33   66 1
    66   34   35 1
    67   34   36 ar
    68   36   67 1
##########                 Name:              T541152
##########          Protonation:                   31
##########               SMILES:   Cc1cccc2c1nc([nH]2)c3ccc(s3)c4cccc(c4)C[NH+]5CCN(CC5)c6ccc(cn6)C#N
##########            Long Name:   l-2-yl)-2-thienyl]phenyl]methyl]piperazin-4-ium-1-yl]pyridine-3-carbonitrile
##########          FlexRecCode: 1
##########               Number:                   76
##########   Ligand Source File: /raidb/db2/rgc/tcams/tcams-0002061.db2.gz
##########           GlobalRank: 177
##########                 Rank:                    1
##########               Setnum:                  275
##########             Matchnum:                 3295
##########                Cloud:                    1
##########        Electrostatic:           -43.037403
##########        Van der Waals:           -32.964478
##########  Ligand Polar Desolv:            14.455243
########## Ligand Apolar Desolv:            -5.163411
##########      Internal Energy:             0.000000
##########      Receptor Energy: 0.0
########## Receptor Desolvation:             0.000000
########## Receptor Hydrophobic:             0.000000
##########         Total Energy: -66.71
##########        Ligand Charge:             1.000000
##########            Arbitrary:    +999.9990
##########     heavy atom count:   36
##########           pose count:    1
##########        Ligand Energy:             0.000000
# num electro vdwattr vdwrepu polsolv apolsol rdesolv rhydroe totalscore fullpol fullapo
#   1    0.27   -1.46    0.39   -0.06   -0.09    0.00    0.00      -0.96   -0.14   -0.20
#   2    0.03   -1.15    0.13   -0.06   -0.14    0.00    0.00      -1.19   -0.19   -0.41
#   3   -0.08   -0.86    0.16   -0.03   -0.18    0.00    0.00      -0.98   -0.12   -0.75
#   4    0.84   -0.72    0.06    0.10    0.49    0.00    0.00       0.78    0.44    2.13
#   5   -0.53   -0.56    0.04    0.20   -0.40    0.00    0.00      -1.25    1.06   -2.19
#   6    0.73   -0.45    0.04   -0.50    0.19    0.00    0.00       0.00   -3.20    1.18
#   7   -0.08   -0.66    0.13    0.01   -0.13    0.00    0.00      -0.73    0.04   -0.78
#   8    0.12   -0.52    0.05   -0.11   -0.08    0.00    0.00      -0.54   -0.69   -0.47
#   9    0.07   -0.69    0.06   -0.13   -0.10    0.00    0.00      -0.80   -0.60   -0.47
#  10    0.15   -1.34    0.28   -0.17   -0.14    0.00    0.00      -1.22   -0.52   -0.45
#  11    0.15   -0.68    0.08   -0.32   -0.06    0.00    0.00      -0.84   -1.58   -0.31
#  12    0.24   -1.77    1.22   -0.14   -0.13    0.00    0.00      -0.58   -0.49   -0.47
#  13    0.34   -2.24    1.21   -0.71   -0.15    0.00    0.00      -1.55   -2.19   -0.46
#  14    0.29   -1.53    1.07   -0.16   -0.08    0.00    0.00      -0.40   -0.60   -0.31
#  15   -0.15   -0.74    0.05    0.51   -0.14    0.00    0.00      -0.46    3.07   -0.81
#  16   -0.14   -2.37    3.62   -0.35   -0.11    0.00    0.00       0.66   -1.30   -0.41
#  17    0.49   -1.45    0.95   -0.48   -0.12    0.00    0.00      -0.60   -1.82   -0.46
#  18    1.63   -1.05    0.14   -0.97   -0.15    0.00    0.00      -0.40   -3.01   -0.47
#  19    2.05   -1.24    0.17   -0.54   -0.12    0.00    0.00       0.31   -1.57   -0.36
#  20    3.75   -1.64    0.55   -1.08   -0.11    0.00    0.00       1.47   -3.21   -0.33
#  21   -1.49   -1.22    0.21    0.92   -0.16    0.00    0.00      -1.74    2.12   -0.36
#  22   14.14   -1.35    0.59   -4.79    0.10    0.00    0.00       8.69  -13.29    0.27
#  23  -20.19   -0.06    0.01    4.24    0.13    0.00    0.00     -15.86   16.95    0.53
#  24    0.58   -0.44    0.02   -0.11   -0.09    0.00    0.00      -0.04   -0.48   -0.37
#  25   -1.63   -0.46    0.03    0.58   -0.11    0.00    0.00      -1.60    2.42   -0.47
#  26   13.22   -1.06    0.12   -4.80    0.52    0.00    0.00       8.00  -15.65    1.70
#  27   -3.60   -1.53    0.69    0.96   -0.21    0.00    0.00      -3.69    2.22   -0.49
#  28    0.86   -1.46    0.63    0.16   -0.19    0.00    0.00       0.01    0.34   -0.40
#  29   -6.10   -1.38    0.31    2.84   -0.67    0.00    0.00      -5.00    8.52   -2.01
#  30    3.77   -1.95    0.60   -1.67   -0.17    0.00    0.00       0.58   -4.20   -0.42
#  31   -0.25   -1.87    0.45    0.00   -0.22    0.00    0.00      -1.89    0.01   -0.46
#  32    1.22   -1.37    0.16   -0.92   -0.16    0.00    0.00      -1.07   -2.24   -0.40
#  33   -1.55   -1.19    0.14    0.90   -0.32    0.00    0.00      -2.03    2.67   -0.96
#  34    4.56   -1.17    0.17   -2.70    0.53    0.00    0.00       1.39   -8.89    1.74
#  35   -2.42   -1.56    0.22    0.96   -0.77    0.00    0.00      -3.58    1.84   -1.48
#  36    3.06   -2.35    0.69   -0.44    0.41    0.00    0.00       1.37   -0.75    0.71
#  37    2.03   -2.09    1.14   -0.54   -0.14    0.00    0.00       0.41   -1.72   -0.44
#  38   -0.21   -0.35    0.07    0.04   -0.10    0.00    0.00      -0.55    0.12   -0.28
#  39   -0.18   -0.56    0.23   -0.04   -0.10    0.00    0.00      -0.65   -0.11   -0.28
#  40   -0.17   -0.85    0.60    0.20   -0.14    0.00    0.00      -0.37    0.39   -0.28
#  41   -0.45    0.00    0.00    0.30    0.04    0.00    0.00      -0.12    4.64    0.59
#  42   -0.10   -0.06    0.00    0.10   -0.02    0.00    0.00      -0.08    1.69   -0.28
#  43   -0.08   -0.10    0.01    0.17   -0.03    0.00    0.00      -0.04    1.68   -0.28
#  44   -0.13   -0.58    0.36    0.33   -0.09    0.00    0.00      -0.11    1.02   -0.28
#  45   -0.43   -0.46    0.36    0.04   -0.06    0.00    0.00      -0.56    0.16   -0.28
#  46   -2.77   -0.79    0.47    0.67   -0.10    0.00    0.00      -2.52    1.66   -0.25
#  47   -0.66   -0.17    0.03    0.23   -0.04    0.00    0.00      -0.61    1.43   -0.24
#  48   -2.99   -0.20    0.02    0.52   -0.05    0.00    0.00      -2.70    2.78   -0.28
#  49   -3.34   -0.28    0.04    1.72   -0.07    0.00    0.00      -1.94    6.25   -0.27
#  50   -5.80   -0.73    0.30    3.43   -0.13    0.00    0.00      -2.94    6.94   -0.27
#  51   -4.13   -0.35    0.05    2.08   -0.09    0.00    0.00      -2.44    6.78   -0.28
#  52   -2.40   -0.14    0.00    0.64   -0.03    0.00    0.00      -1.92    5.67   -0.28
#  53   -2.41   -0.09    0.00    0.46   -0.02    0.00    0.00      -2.05    5.65   -0.20
#  54   -0.56   -0.25    0.10    0.61   -0.03    0.00    0.00      -0.14    3.71   -0.20
#  55   -1.85   -0.11    0.00    0.40   -0.03    0.00    0.00      -1.58    3.80   -0.28
#  56   -4.41   -0.53    0.17    0.99   -0.11    0.00    0.00      -3.90    2.09   -0.24
#  57   -4.24   -1.12    2.60    1.28   -0.11    0.00    0.00      -1.59    3.37   -0.28
#  58   -6.91   -0.79    0.66    3.67   -0.14    0.00    0.00      -3.51    7.23   -0.28
#  59   -4.00   -0.41    0.12    1.56   -0.09    0.00    0.00      -2.82    4.97   -0.28
#  60   -2.82   -0.42    0.10    1.67   -0.07    0.00    0.00      -1.55    4.72   -0.21
#  61   -2.76   -0.40    0.06    1.00   -0.13    0.00    0.00      -2.23    2.20   -0.28
#  62   -1.09   -0.20    0.01    0.44   -0.06    0.00    0.00      -0.90    2.14   -0.28
#  63   -4.56   -0.46    0.16    1.35   -0.08    0.00    0.00      -3.58    4.59   -0.27

@<TRIPOS>MOLECULE
          T541152        31
   63    68     0     0     0



@<TRIPOS>ATOM
      1 C1          4.4655    -7.0681    81.8738 C.3        1          -0.1149
      2 C2          3.2032    -7.7842    82.2792 C.ar       1          -0.0206
      3 C3          2.6860    -7.6174    83.5683 C.ar       1           0.0474
      4 N1          3.0855    -6.8971    84.6441 N.2        1          -0.4503
      5 C4          2.2425    -7.0800    85.6357 C.2        1           0.3427
      6 N2          1.2464    -7.9372    85.2427 N.pl3      1          -0.5962
      7 C5          1.5071    -8.2921    83.9323 C.ar       1           0.0667
      8 C6          0.8702    -9.1138    83.0134 C.ar       1          -0.1248
      9 C7          1.3987    -9.2632    81.7479 C.ar       1          -0.0805
     10 C8          2.5588    -8.5932    81.3864 C.ar       1          -0.1301
     11 C9          2.3507    -6.4600    86.9635 C.2        1          -0.0866
     12 C10         3.3124    -5.5847    87.4394 C.2        1          -0.1013
     13 C11         3.2085    -5.1308    88.7275 C.2        1          -0.1197
     14 C12         2.1477    -5.5640    89.5018 C.2        1          -0.1349
     15 S1          1.2716    -6.6359    88.3747 S.3        1           0.1016
     16 C13         1.8201    -5.2224    90.9015 C.ar       1           0.0169
     17 C14         0.4906    -5.2146    91.3287 C.ar       1          -0.0682
     18 C15         0.1919    -4.8953    92.6368 C.ar       1          -0.1012
     19 C16         1.2060    -4.5827    93.5251 C.ar       1          -0.0979
     20 C17         2.5251    -4.5882    93.1083 C.ar       1          -0.1512
     21 C18         3.6228    -4.2464    94.0827 C.3        1           0.0439
     22 N3          4.7207    -5.2123    93.9421 N.4        1          -0.3833
     23 H1          5.0818    -5.1743    93.0006 H          1           0.4227
     24 C19         4.2189    -6.5645    94.2176 C.3        1          -0.0281
     25 C20         5.3332    -7.5841    93.9599 C.3        1           0.1013
     26 N4          6.5100    -7.1995    94.7545 N.pl3      1          -0.6216
     27 C21         6.9842    -5.8099    94.6632 C.3        1           0.1014
     28 C22         5.7910    -4.8754    94.8890 C.3        1          -0.0222
     29 C23         7.1534    -8.1200    95.5665 C.ar       1           0.4165
     30 C24         7.7975    -7.6839    96.7228 C.ar       1          -0.2277
     31 C25         8.4321    -8.5955    97.5227 C.ar       1           0.0168
     32 C26         8.4101    -9.9471    97.1453 C.ar       1          -0.1154
     33 C27         7.7455   -10.3127    95.9736 C.ar       1           0.2069
     34 N5          7.1429    -9.4036    95.2353 N.ar       1          -0.5339
     35 C28         9.0606   -10.9368    97.9503 C.1        1           0.2455
     36 N6          9.5765   -11.7220    98.5890 N.1        1          -0.3939
     37 C29         2.8385    -4.9117    91.8042 C.ar       1          -0.0895
     38 H2          4.8319    -6.4749    82.7117 H          1           0.0750
     39 H3          5.2220    -7.7988    81.5877 H          1           0.0732
     40 H4          4.2559    -6.4123    81.0286 H          1           0.0713
     41 H5          0.4993    -8.2382    85.7832 H          1           0.4221
     42 H6         -0.0354    -9.6347    83.2878 H          1           0.1264
     43 H7          0.9036    -9.9026    81.0321 H          1           0.1365
     44 H8          2.9589    -8.7160    80.3909 H          1           0.1356
     45 H9          4.1286    -5.2667    86.8076 H          1           0.1567
     46 H10         3.9412    -4.4476    89.1309 H          1           0.1484
     47 H11        -0.3018    -5.4576    90.6363 H          1           0.1412
     48 H12        -0.8359    -4.8889    92.9685 H          1           0.1433
     49 H13         0.9665    -4.3332    94.5481 H          1           0.1351
     50 H14         3.9932    -3.2425    93.8752 H          1           0.1398
     51 H15         3.2316    -4.2865    95.0993 H          1           0.1392
     52 H16         3.9006    -6.6291    95.2581 H          1           0.1354
     53 H17         3.3726    -6.7782    93.5647 H          1           0.1450
     54 H18         4.9977    -8.5770    94.2593 H          1           0.1306
     55 H19         5.5909    -7.5853    92.9008 H          1           0.0965
     56 H20         7.7401    -5.6298    95.4275 H          1           0.1422
     57 H21         7.4086    -5.6319    93.6750 H          1           0.0904
     58 H22         6.1042    -3.8433    94.7314 H          1           0.1434
     59 H23         5.4241    -4.9921    95.9088 H          1           0.1354
     60 H24         7.7963    -6.6362    96.9851 H          1           0.1445
     61 H25         8.9384    -8.2818    98.4237 H          1           0.1507
     62 H26         7.7217   -11.3495    95.6721 H          1           0.1747
     63 H27         3.8692    -4.9200    91.4813 H          1           0.1311
@<TRIPOS>BOND
     1    1    2 1
     2    1   38 1
     3    1   39 1
     4    1   40 1
     5    2   10 ar
     6    2    3 ar
     7    3    7 ar
     8    3    4 1
     9    4    5 2
    10    5    6 1
    11    5   11 1
    12    6    7 1
    13    6   41 1
    14    7    8 ar
    15    8    9 ar
    16    8   42 1
    17    9   10 ar
    18    9   43 1
    19   10   44 1
    20   11   15 1
    21   11   12 2
    22   12   13 1
    23   12   45 1
    24   13   14 2
    25   13   46 1
    26   14   15 1
    27   14   16 1
    28   16   37 ar
    29   16   17 ar
    30   17   18 ar
    31   17   47 1
    32   18   19 ar
    33   18   48 1
    34   19   20 ar
    35   19   49 1
    36   20   21 1
    37   20   37 ar
    38   21   22 1
    39   21   50 1
    40   21   51 1
    41   22   23 1
    42   22   28 1
    43   22   24 1
    44   24   25 1
    45   24   52 1
    46   24   53 1
    47   25   26 1
    48   25   54 1
    49   25   55 1
    50   26   27 1
    51   26   29 1
    52   27   28 1
    53   27   56 1
    54   27   57 1
    55   28   58 1
    56   28   59 1
    57   29   34 ar
    58   29   30 ar
    59   30   31 ar
    60   30   60 1
    61   31   32 ar
    62   31   61 1
    63   32   33 ar
    64   32   35 1
    65   33   34 ar
    66   33   62 1
    67   35   36 3
    68   37   63 1
##########                 Name:              T526511
##########          Protonation:                   62
##########               SMILES:   c(cc1)[C@H]2C[C@H]2CNC(=[NH2+])c3cccc(n3)C(=[NH2+])NC[C@@H]4C[C@@H]4c5ccccc5
##########            Long Name:   hyl]-2-pyridyl]-[[(1R,2S)-2-phenylcyclopropyl]methylamino]methylene]ammonium
##########          FlexRecCode: 1
##########               Number:                   82
##########   Ligand Source File: /raidb/db2/rgc/tcams/tcams-0000162.db2.gz
##########           GlobalRank: 178
##########                 Rank:                    1
##########               Setnum:                  331
##########             Matchnum:                 5272
##########                Cloud:                    1
##########        Electrostatic:           -57.776665
##########        Van der Waals:           -23.808109
##########  Ligand Polar Desolv:            17.445930
########## Ligand Apolar Desolv:            -2.507789
##########      Internal Energy:             0.000000
##########      Receptor Energy: 0.0
########## Receptor Desolvation:             0.000000
########## Receptor Hydrophobic:             0.000000
##########         Total Energy: -66.65
##########        Ligand Charge:             2.000000
##########            Arbitrary:    +999.9990
##########     heavy atom count:   32
##########           pose count:    1
##########        Ligand Energy:             0.000000
# num electro vdwattr vdwrepu polsolv apolsol rdesolv rhydroe totalscore fullpol fullapo
#   1   28.18   -4.25    6.23  -10.43    0.30    0.00    0.00      20.03  -29.04    0.84
#   2  -14.69   -0.04    0.00    6.68    0.15    0.00    0.00      -7.91   20.19    0.45
#   3  -28.40   -0.34    0.40    7.54    0.20    0.00    0.00     -20.60   18.17    0.48
#   4  -14.90   -1.76    0.87    6.77   -0.60    0.00    0.00      -9.62   24.28   -2.16
#   5    9.20   -1.31    0.47   -6.20    0.42    0.00    0.00       2.58  -24.79    1.67
#   6   -1.29   -1.10    0.49    1.04   -0.09    0.00    0.00      -0.95    3.62   -0.30
#   7    1.48   -0.75    0.14   -0.79   -0.11    0.00    0.00      -0.04   -2.66   -0.38
#   8    2.40   -0.66    0.04   -1.70   -0.14    0.00    0.00      -0.06   -4.76   -0.40
#   9    0.57   -1.16    0.23   -1.60   -0.15    0.00    0.00      -2.11   -4.12   -0.39
#  10    0.86   -1.69    0.31   -0.39   -0.16    0.00    0.00      -1.07   -0.87   -0.35
#  11    1.24   -2.41    1.61   -1.15   -0.16    0.00    0.00      -0.87   -2.65   -0.37
#  12    1.49   -2.13    0.82   -1.31   -0.25    0.00    0.00      -1.37   -2.51   -0.47
#  13    2.10   -2.57    0.65   -1.65   -0.27    0.00    0.00      -1.75   -2.89   -0.47
#  14    2.23   -2.99    1.00   -1.51   -0.28    0.00    0.00      -1.55   -2.55   -0.47
#  15    1.75   -1.89    0.28   -1.43   -0.24    0.00    0.00      -1.54   -2.72   -0.46
#  16   -2.60   -0.98    0.18    0.88   -0.18    0.00    0.00      -2.69    3.64   -0.74
#  17    0.96   -0.32    0.01   -0.35   -0.06    0.00    0.00       0.23   -2.72   -0.45
#  18    0.42   -0.22    0.00   -0.27   -0.04    0.00    0.00      -0.11   -3.06   -0.48
#  19    1.00   -0.41    0.01   -0.43   -0.07    0.00    0.00       0.11   -2.72   -0.45
#  20   -2.75   -1.12    0.22    0.96   -0.19    0.00    0.00      -2.88    3.65   -0.74
#  21   13.29   -2.09    0.99   -5.13    0.49    0.00    0.00       7.55  -16.79    1.60
#  22  -18.61   -2.02    0.88    9.05   -0.81    0.00    0.00     -11.50   24.28   -2.16
#  23   32.26   -5.19    5.61  -13.41    0.39    0.00    0.00      19.66  -29.04    0.84
#  24  -24.71   -0.17    0.05    8.45    0.22    0.00    0.00     -16.16   18.17    0.48
#  25  -20.86   -0.08    0.00   10.48    0.23    0.00    0.00     -10.22   20.19    0.45
#  26   17.43   -1.43    0.22   -9.37    0.63    0.00    0.00       7.48  -24.79    1.67
#  27   -1.56   -0.45    0.02    0.93   -0.08    0.00    0.00      -1.13    3.62   -0.30
#  28    1.97   -0.63    0.10   -0.78   -0.11    0.00    0.00       0.54   -2.66   -0.38
#  29    0.40   -0.57    0.10   -1.09   -0.09    0.00    0.00      -1.25   -4.76   -0.40
#  30    0.16   -0.28    0.01   -0.70   -0.07    0.00    0.00      -0.88   -4.12   -0.39
#  31    0.13   -0.25    0.00   -0.08   -0.03    0.00    0.00      -0.21   -0.87   -0.35
#  32    0.23   -0.46    0.03   -0.48   -0.07    0.00    0.00      -0.74   -2.65   -0.37
#  33    0.14   -0.56    0.09   -0.42   -0.08    0.00    0.00      -0.82   -2.51   -0.47
#  34    0.15   -0.26    0.01   -0.29   -0.05    0.00    0.00      -0.45   -2.89   -0.47
#  35    0.13   -0.12    0.00   -0.13   -0.02    0.00    0.00      -0.14   -2.55   -0.47
#  36    0.14   -0.14    0.00   -0.14   -0.02    0.00    0.00      -0.17   -2.72   -0.46
#  37   -4.52   -0.01    0.00    2.10    0.06    0.00    0.00      -2.38   18.23    0.52
#  38   -1.07   -0.31    0.12    0.72   -0.05    0.00    0.00      -0.58    3.84   -0.27
#  39   -1.93   -0.74    0.76    1.18   -0.06    0.00    0.00      -0.78    4.38   -0.22
#  40   -0.03   -0.45    0.42    1.09   -0.06    0.00    0.00       0.97    5.47   -0.28
#  41   -2.23   -0.22    0.02    0.68   -0.04    0.00    0.00      -1.80    3.19   -0.21
#  42   -1.74   -0.17    0.01    0.45   -0.05    0.00    0.00      -1.50    2.43   -0.28
#  43    0.02   -0.89    0.58    0.76   -0.11    0.00    0.00       0.37    1.92   -0.28
#  44   -0.53   -0.55    0.28    1.71   -0.06    0.00    0.00       0.85    5.07   -0.17
#  45   -1.25   -0.40    0.10    1.45   -0.12    0.00    0.00      -0.23    3.30   -0.28
#  46   -2.49   -0.76    0.51    0.91   -0.15    0.00    0.00      -1.98    1.67   -0.28
#  47   -3.25   -1.18    1.06    0.82   -0.17    0.00    0.00      -2.72    1.39   -0.28
#  48   -2.14   -0.48    0.28    0.78   -0.10    0.00    0.00      -1.67    2.08   -0.28
#  49   -1.62   -0.05    0.00    0.38   -0.01    0.00    0.00      -1.29    9.37   -0.21
#  50   -1.14   -0.02    0.00    0.23   -0.01    0.00    0.00      -0.95    7.65   -0.28
#  51   -1.81   -0.08    0.00    0.63   -0.01    0.00    0.00      -1.26    9.38   -0.21
#  52  -15.23   -0.03    0.00    6.68    0.19    0.00    0.00      -8.39   18.22    0.52
#  53   -1.65   -0.14    0.01    0.54   -0.04    0.00    0.00      -1.27    3.84   -0.27
#  54   -1.10   -0.07    0.00    0.27   -0.01    0.00    0.00      -0.91    4.36   -0.22
#  55   -2.86   -0.47    0.37    1.69   -0.09    0.00    0.00      -1.35    5.48   -0.28
#  56   -0.26   -0.11    0.01    0.43   -0.03    0.00    0.00       0.05    3.20   -0.21
#  57   -0.30   -0.42    0.35    0.54   -0.06    0.00    0.00       0.11    2.42   -0.28
#  58   -0.12   -0.08    0.00    0.18   -0.03    0.00    0.00      -0.05    1.92   -0.28
#  59   -0.04   -0.15    0.01    0.95   -0.03    0.00    0.00       0.73    5.06   -0.17
#  60   -0.02   -0.26    0.14    0.53   -0.05    0.00    0.00       0.35    3.29   -0.28
#  61   -0.10   -0.06    0.00    0.09   -0.01    0.00    0.00      -0.09    1.66   -0.28
#  62   -0.11   -0.01    0.00    0.03   -0.01    0.00    0.00      -0.11    1.39   -0.28
#  63   -0.20   -0.03    0.00    0.06   -0.01    0.00    0.00      -0.17    2.09   -0.28

@<TRIPOS>MOLECULE
          T526511        62
   63    67     0     0     0



@<TRIPOS>ATOM
      1 N1          7.4068    -6.2341    93.3048 N.pl3      1          -0.7210
      2 H1          7.4668    -6.2883    94.2715 H          1           0.4477
      3 H2          7.4330    -5.3699    92.8650 H          1           0.4454
      4 C1          7.2969    -7.3208    92.5978 C.cat      1           0.5827
      5 N2          7.2628    -8.5485    93.2222 N.pl3      1          -0.6290
      6 C2          7.3501    -8.6304    94.6823 C.3        1           0.0990
      7 C3          5.9436    -8.5726    95.2814 C.3        1          -0.1781
      8 C4          5.5658    -7.3224    96.0784 C.3        1          -0.1608
      9 C5          5.8211    -8.6445    96.8049 C.3        1          -0.0804
     10 C6          7.0952    -8.7667    97.6004 C.ar       1          -0.0751
     11 C7          7.6070   -10.0158    97.8979 C.ar       1          -0.1357
     12 C8          8.7757   -10.1280    98.6276 C.ar       1          -0.1161
     13 C9          9.4328    -8.9910    99.0593 C.ar       1          -0.1116
     14 C10         8.9215    -7.7419    98.7609 C.ar       1          -0.1084
     15 C11         7.7550    -7.6297    98.0276 C.ar       1          -0.1055
     16 C12         7.2086    -7.2380    91.1197 C.ar       1           0.1059
     17 C13         6.4926    -8.2062    90.4158 C.ar       1          -0.0671
     18 C14         6.4150    -8.1205    89.0352 C.ar       1          -0.0378
     19 C15         7.0557    -7.0693    88.3994 C.ar       1          -0.0672
     20 C16         7.7549    -6.1350    89.1635 C.ar       1           0.1059
     21 N3          7.8057    -6.2426    90.4823 N.ar       1          -0.4181
     22 C17         8.4443    -5.0066    88.4921 C.cat      1           0.5827
     23 N4          7.8133    -3.8871    88.2886 N.pl3      1          -0.7210
     24 H3          6.8918    -3.7904    88.5756 H          1           0.4454
     25 H4          8.2643    -3.1491    87.8493 H          1           0.4477
     26 N5          9.7531    -5.1437    88.0842 N.pl3      1          -0.6291
     27 C18        10.4637    -6.4042    88.3136 C.3        1           0.0990
     28 C19        11.8893    -6.2922    87.7698 C.3        1          -0.1781
     29 C20        12.2447    -7.1314    86.5408 C.3        1          -0.1608
     30 C21        12.7986    -7.5140    87.9145 C.3        1          -0.0804
     31 C22        12.2216    -8.7358    88.5819 C.ar       1          -0.0751
     32 C23        12.3258    -8.8893    89.9517 C.ar       1          -0.1357
     33 C24        11.7965   -10.0099    90.5640 C.ar       1          -0.1161
     34 C25        11.1626   -10.9770    89.8063 C.ar       1          -0.1116
     35 C26        11.0575   -10.8230    88.4365 C.ar       1          -0.1084
     36 C27        11.5831    -9.7002    87.8248 C.ar       1          -0.1055
     37 H5          7.1808    -9.3586    92.6951 H          1           0.4434
     38 H6          7.8276    -9.5683    94.9656 H          1           0.1096
     39 H7          7.9399    -7.7943    95.0584 H          1           0.1069
     40 H8          5.1610    -9.0488    94.6906 H          1           0.1256
     41 H9          6.3195    -6.5409    96.1757 H          1           0.1075
     42 H10         4.5346    -6.9757    96.0118 H          1           0.1135
     43 H11         4.9577    -9.1675    97.2162 H          1           0.1292
     44 H12         7.0936   -10.9042    97.5606 H          1           0.1195
     45 H13         9.1753   -11.1039    98.8607 H          1           0.1268
     46 H14        10.3455    -9.0786    99.6300 H          1           0.1293
     47 H15         9.4346    -6.8536    99.0984 H          1           0.1305
     48 H16         7.3575    -6.6537    97.7913 H          1           0.1271
     49 H17         6.0045    -9.0138    90.9412 H          1           0.1727
     50 H18         5.8673    -8.8575    88.4666 H          1           0.1888
     51 H19         7.0145    -6.9746    87.3244 H          1           0.1727
     52 H20        10.2041    -4.4057    87.6450 H          1           0.4434
     53 H21        10.4979    -6.6125    89.3829 H          1           0.1096
     54 H22         9.9423    -7.2134    87.8022 H          1           0.1070
     55 H23        12.3504    -5.3084    87.8582 H          1           0.1256
     56 H24        11.4627    -7.7631    86.1196 H          1           0.1075
     57 H25        12.9395    -6.6997    85.8203 H          1           0.1135
     58 H26        13.8580    -7.3342    88.0979 H          1           0.1292
     59 H27        12.8211    -8.1338    90.5437 H          1           0.1195
     60 H28        11.8785   -10.1302    91.6340 H          1           0.1268
     61 H29        10.7496   -11.8528    90.2844 H          1           0.1293
     62 H30        10.5625   -11.5786    87.8446 H          1           0.1305
     63 H31        11.4978    -9.5782    86.7552 H          1           0.1271
@<TRIPOS>BOND
     1    1    2 1
     2    1    3 1
     3    1    4 2
     4    4    5 1
     5    4   16 1
     6    5    6 1
     7    5   37 1
     8    6    7 1
     9    6   38 1
    10    6   39 1
    11    7    9 1
    12    7    8 1
    13    7   40 1
    14    8    9 1
    15    8   41 1
    16    8   42 1
    17    9   10 1
    18    9   43 1
    19   10   15 ar
    20   10   11 ar
    21   11   12 ar
    22   11   44 1
    23   12   13 ar
    24   12   45 1
    25   13   14 ar
    26   13   46 1
    27   14   15 ar
    28   14   47 1
    29   15   48 1
    30   16   21 ar
    31   16   17 ar
    32   17   18 ar
    33   17   49 1
    34   18   19 ar
    35   18   50 1
    36   19   20 ar
    37   19   51 1
    38   20   21 ar
    39   20   22 1
    40   22   23 2
    41   22   26 1
    42   23   24 1
    43   23   25 1
    44   26   27 1
    45   26   52 1
    46   27   28 1
    47   27   53 1
    48   27   54 1
    49   28   30 1
    50   28   29 1
    51   28   55 1
    52   29   30 1
    53   29   56 1
    54   29   57 1
    55   30   31 1
    56   30   58 1
    57   31   36 ar
    58   31   32 ar
    59   32   33 ar
    60   32   59 1
    61   33   34 ar
    62   33   60 1
    63   34   35 ar
    64   34   61 1
    65   35   36 ar
    66   35   62 1
    67   36   63 1
##########                 Name:              T539537
##########          Protonation:                   13
##########               SMILES:   CN([C@H]1CC[NH+](CC1)Cc2cc(ccc2)O)c3[nH+]ccc(c3)NC(=O)c4ccc(cc4)F
##########            Long Name:   henyl)methyl]piperidin-1-ium-4-yl]-methyl-amino]pyridin-1-ium-4-yl]benzamide
##########          FlexRecCode: 1
##########               Number:                  209
##########   Ligand Source File: /raidb/db2/rgc/tcams/tcams-0002076.db2.gz
##########           GlobalRank: 179
##########                 Rank:                    1
##########               Setnum:                  388
##########             Matchnum:                  914
##########                Cloud:                    1
##########        Electrostatic:           -37.672920
##########        Van der Waals:           -28.946600
##########  Ligand Polar Desolv:             3.296992
########## Ligand Apolar Desolv:            -3.294597
##########      Internal Energy:             0.000000
##########      Receptor Energy: 0.0
########## Receptor Desolvation:             0.000000
########## Receptor Hydrophobic:             0.000000
##########         Total Energy: -66.62
##########        Ligand Charge:             2.000000
##########            Arbitrary:    +999.9990
##########     heavy atom count:   32
##########           pose count:    1
##########        Ligand Energy:             0.000000
# num electro vdwattr vdwrepu polsolv apolsol rdesolv rhydroe totalscore fullpol fullapo
#   1   -0.27   -0.17    0.01    0.08   -0.04    0.00    0.00      -0.40    0.79   -0.41
#   2    7.27   -0.37    0.01   -3.61    0.19    0.00    0.00       3.50  -25.21    1.35
#   3   -2.26   -0.35    0.03    0.87   -0.05    0.00    0.00      -1.75    4.93   -0.26
#   4    3.79   -0.67    0.13   -1.62   -0.05    0.00    0.00       1.58   -6.81   -0.20
#   5    1.15   -1.13    0.40   -0.42   -0.10    0.00    0.00      -0.09   -1.44   -0.34
#   6    6.86   -0.41    0.02   -3.01    0.05    0.00    0.00       3.51  -16.80    0.27
#   7   -8.05   -0.01    0.00    1.97    0.05    0.00    0.00      -6.04   21.48    0.54
#   8   -0.44   -0.20    0.01    0.36   -0.05    0.00    0.00      -0.32    2.83   -0.36
#   9    0.84   -0.68    0.05   -0.62   -0.07    0.00    0.00      -0.47   -2.90   -0.33
#  10    1.26   -1.32    0.29   -0.96   -0.15    0.00    0.00      -0.87   -2.97   -0.45
#  11    1.01   -2.48    1.72   -1.48   -0.20    0.00    0.00      -1.43   -3.54   -0.47
#  12    0.47   -2.08    0.54   -1.85   -0.20    0.00    0.00      -3.12   -4.26   -0.46
#  13   -0.39   -1.63    0.53    0.34   -0.11    0.00    0.00      -1.25    0.96   -0.31
#  14    0.97   -2.42    1.63   -4.14    0.45    0.00    0.00      -3.52  -11.07    1.19
#  15    0.44   -0.72    0.06   -0.71   -0.08    0.00    0.00      -1.01   -3.30   -0.35
#  16    0.16   -0.25    0.01   -0.14   -0.05    0.00    0.00      -0.27   -0.92   -0.34
#  17    2.09   -0.18    0.00   -0.89   -0.03    0.00    0.00       0.99   -7.71   -0.22
#  18   -4.70   -0.63    0.07    3.67   -0.35    0.00    0.00      -1.94   19.89   -1.91
#  19    1.61   -1.08    0.33   -1.89   -0.10    0.00    0.00      -1.12   -8.15   -0.43
#  20   -1.04   -2.08    2.26    2.37   -0.19    0.00    0.00       1.32    8.31   -0.67
#  21    2.52   -1.87    0.68   -6.71    0.57    0.00    0.00      -4.81  -19.34    1.64
#  22   -1.56   -1.75    0.49    4.86   -0.22    0.00    0.00       1.81   13.84   -0.64
#  23    0.65   -1.70    0.58   -3.46    0.10    0.00    0.00      -3.83  -11.08    0.33
#  24    1.00   -1.48    0.20   -1.33   -0.17    0.00    0.00      -1.78   -3.29   -0.41
#  25    0.48   -1.70    0.47   -0.12   -0.19    0.00    0.00      -1.07   -0.28   -0.44
#  26    1.62   -2.12    0.76   -1.71   -0.25    0.00    0.00      -1.70   -3.18   -0.47
#  27   -0.99   -2.42    0.52    0.35   -0.20    0.00    0.00      -2.75    0.58   -0.34
#  28   -0.13   -3.15    2.72   -1.20   -0.31    0.00    0.00      -2.06   -1.87   -0.48
#  29    1.27   -2.17    0.38   -1.63   -0.28    0.00    0.00      -2.43   -2.76   -0.47
#  30    0.09   -1.72    0.27   -0.46   -0.23    0.00    0.00      -2.05   -0.92   -0.46
#  31    0.83   -1.94    1.65   -2.47   -0.13    0.00    0.00      -2.06   -7.96   -0.41
#  32   -1.75   -0.92    0.18    1.92   -0.23    0.00    0.00      -0.81    7.99   -0.97
#  33    6.01   -0.59    0.04   -3.76    0.15    0.00    0.00       1.85  -20.24    0.80
#  34   -5.88   -0.01    0.00    1.50    0.03    0.00    0.00      -4.36   20.80    0.39
#  35   -0.08   -0.07    0.00    0.45   -0.02    0.00    0.00       0.29    6.19   -0.23
#  36   -0.62   -0.04    0.00    0.14   -0.01    0.00    0.00      -0.53    3.51   -0.24
#  37   -0.19   -0.04    0.00    0.26   -0.01    0.00    0.00       0.02    6.10   -0.18
#  38   -3.27   -0.19    0.03    0.95   -0.04    0.00    0.00      -2.53    5.58   -0.26
#  39   -1.81   -0.08    0.00    0.46   -0.02    0.00    0.00      -1.45    5.40   -0.23
#  40   -4.42   -0.44    0.20    1.55   -0.07    0.00    0.00      -3.18    6.02   -0.28
#  41   -4.83   -0.47    0.18    2.38   -0.04    0.00    0.00      -2.78    8.26   -0.13
#  42   -6.04   -0.87    0.92    2.71   -0.09    0.00    0.00      -3.37    8.32   -0.28
#  43   -0.84   -0.05    0.00    0.48   -0.02    0.00    0.00      -0.42    8.28   -0.28
#  44   -1.16   -0.04    0.00    0.33   -0.01    0.00    0.00      -0.88    8.44   -0.27
#  45   -2.90   -0.19    0.02    1.37   -0.06    0.00    0.00      -1.76    6.74   -0.28
#  46   -3.57   -0.63    0.61    0.78   -0.10    0.00    0.00      -2.92    2.12   -0.28
#  47   -0.64   -0.46    0.10    0.30   -0.12    0.00    0.00      -0.83    0.68   -0.28
#  48   -0.68   -0.02    0.00    2.30    0.28    0.00    0.00       1.87   10.13    1.22
#  49   -0.35   -0.07    0.00    0.46   -0.02    0.00    0.00       0.02    6.69   -0.28
#  50   -1.15   -0.04    0.00    0.31   -0.01    0.00    0.00      -0.90    7.39   -0.27
#  51   -2.55   -0.15    0.01    0.78   -0.03    0.00    0.00      -1.94    4.76   -0.19
#  52   -1.18   -0.05    0.00    0.30   -0.01    0.00    0.00      -0.95    6.33   -0.28
#  53   -0.80   -0.03    0.00    0.15   -0.01    0.00    0.00      -0.68    4.67   -0.20
#  54   -1.42   -0.14    0.01    1.25   -0.03    0.00    0.00      -0.33    9.33   -0.22
#  55   -2.83   -0.02    0.00    4.16    0.13    0.00    0.00       1.44   15.17    0.46
#  56   -1.66   -0.27    0.03    1.84   -0.05    0.00    0.00      -0.11    7.42   -0.22
#  57   -2.14   -0.52    0.23    1.62   -0.13    0.00    0.00      -0.94    3.43   -0.28
#  58   -1.57   -0.67    0.25    0.86   -0.16    0.00    0.00      -1.29    1.52   -0.28
#  59   -1.14   -0.50    0.25    0.84   -0.10    0.00    0.00      -0.64    2.27   -0.26
#  60   -1.25   -0.41    0.12    0.91   -0.07    0.00    0.00      -0.70    2.89   -0.22
#  61   -3.53   -0.14    0.00    1.32   -0.04    0.00    0.00      -2.38    9.89   -0.28

@<TRIPOS>MOLECULE
          T539537        13
   61    64     0     0     0



@<TRIPOS>ATOM
      1 C1          3.7245    -8.6388    90.6457 C.3        1           0.0546
      2 N1          4.7108    -8.0511    91.5556 N.pl3      1          -0.6042
      3 C2          5.9569    -7.4937    91.0241 C.3        1           0.1125
      4 C3          5.6359    -6.3706    90.0343 C.3        1          -0.1488
      5 C4          6.9416    -5.8373    89.4412 C.3        1          -0.0372
      6 N2          7.6475    -6.9188    88.7431 N.4        1          -0.3800
      7 H1          8.4860    -6.5515    88.3186 H          1           0.4266
      8 C5          6.7763    -7.4742    87.6988 C.3        1           0.0458
      9 C6          6.4169    -6.3902    86.7156 C.ar       1          -0.1507
     10 C7          7.3957    -5.5370    86.2397 C.ar       1          -0.1013
     11 C8          7.0694    -4.5418    85.3373 C.ar       1          -0.0899
     12 C9          5.7638    -4.3972    84.9088 C.ar       1          -0.1083
     13 C10         4.7803    -5.2516    85.3847 C.ar       1           0.1202
     14 O1          3.4954    -5.1114    84.9647 O.3        1          -0.4898
     15 C11         5.1113    -6.2530    86.2863 C.ar       1          -0.1323
     16 C12         8.0069    -7.9810    89.6905 C.3        1          -0.0114
     17 C13         6.7380    -8.5883    90.2922 C.3        1          -0.1736
     18 C14         4.4642    -8.0224    92.9236 C.ar       1           0.4544
     19 C15         5.3370    -8.6634    93.7930 C.ar       1          -0.2380
     20 C16         5.0774    -8.6255    95.1588 C.ar       1           0.3203
     21 N3          5.9291    -9.2559    96.0658 N.am       1          -0.6653
     22 C17         6.6149   -10.3550    95.6942 C.2        1           0.5778
     23 O2          6.4912   -10.7970    94.5685 O.2        1          -0.4891
     24 C18         7.5167   -11.0225    96.6546 C.ar       1          -0.1764
     25 C19         8.1064   -10.2903    97.6876 C.ar       1          -0.0507
     26 C20         8.9469   -10.9184    98.5814 C.ar       1          -0.1597
     27 C21         9.2076   -12.2745    98.4562 C.ar       1           0.1552
     28 F1         10.0325   -12.8851    99.3348 F          1          -0.1188
     29 C22         8.6245   -13.0063    97.4330 C.ar       1          -0.1583
     30 C23         7.7783   -12.3894    96.5368 C.ar       1          -0.0135
     31 C24         3.9433    -7.9405    95.5996 C.ar       1          -0.1692
     32 C25         3.1247    -7.3291    94.6753 C.ar       1           0.1672
     33 N4          3.4017    -7.3792    93.3850 N.ar       1          -0.5183
     34 H2          2.8092    -6.9360    92.7578 H          1           0.4382
     35 H3          2.8700    -8.9981    91.2192 H          1           0.0794
     36 H4          3.3924    -7.8839    89.9331 H          1           0.1003
     37 H5          4.1773    -9.4719    90.1080 H          1           0.1091
     38 H6          6.5595    -7.0997    91.8425 H          1           0.1181
     39 H7          5.0042    -6.7585    89.2352 H          1           0.1325
     40 H8          5.1154    -5.5654    90.5527 H          1           0.1227
     41 H9          6.7190    -5.0358    88.7367 H          1           0.1432
     42 H10         7.5721    -5.4507    90.2419 H          1           0.1477
     43 H11         7.2986    -8.2774    87.1792 H          1           0.1360
     44 H12         5.8675    -7.8671    88.1548 H          1           0.1459
     45 H13         8.4167    -5.6483    86.5736 H          1           0.1370
     46 H14         7.8356    -3.8767    84.9674 H          1           0.1453
     47 H15         5.5094    -3.6194    84.2042 H          1           0.1459
     48 H16         2.8831    -5.7522    85.3513 H          1           0.4001
     49 H17         4.3480    -6.9224    86.6549 H          1           0.1332
     50 H18         8.5682    -8.7568    89.1695 H          1           0.1262
     51 H19         8.6218    -7.5629    90.4877 H          1           0.1421
     52 H20         7.0087    -9.3754    90.9959 H          1           0.1248
     53 H21         6.1212    -9.0062    89.4966 H          1           0.1022
     54 H22         6.2043    -9.1837    93.4143 H          1           0.1818
     55 H23         6.0279    -8.9032    96.9640 H          1           0.4314
     56 H24         7.9045    -9.2339    97.7855 H          1           0.1346
     57 H25         9.4034   -10.3533    99.3805 H          1           0.1522
     58 H26         8.8307   -14.0624    97.3403 H          1           0.1550
     59 H27         7.3217   -12.9611    95.7424 H          1           0.1526
     60 H28         3.7103    -7.8907    96.6530 H          1           0.1966
     61 H29         2.2464    -6.7980    95.0111 H          1           0.2160
@<TRIPOS>BOND
     1    1    2 1
     2    1   35 1
     3    1   36 1
     4    1   37 1
     5    2    3 1
     6    2   18 1
     7    3   17 1
     8    3    4 1
     9    3   38 1
    10    4    5 1
    11    4   39 1
    12    4   40 1
    13    5    6 1
    14    5   41 1
    15    5   42 1
    16    6    7 1
    17    6    8 1
    18    6   16 1
    19    8    9 1
    20    8   43 1
    21    8   44 1
    22    9   15 ar
    23    9   10 ar
    24   10   11 ar
    25   10   45 1
    26   11   12 ar
    27   11   46 1
    28   12   13 ar
    29   12   47 1
    30   13   14 1
    31   13   15 ar
    32   14   48 1
    33   15   49 1
    34   16   17 1
    35   16   50 1
    36   16   51 1
    37   17   52 1
    38   17   53 1
    39   18   33 ar
    40   18   19 ar
    41   19   20 ar
    42   19   54 1
    43   20   21 1
    44   20   31 ar
    45   21   22 am
    46   21   55 1
    47   22   23 2
    48   22   24 1
    49   24   30 ar
    50   24   25 ar
    51   25   26 ar
    52   25   56 1
    53   26   27 ar
    54   26   57 1
    55   27   28 1
    56   27   29 ar
    57   29   30 ar
    58   29   58 1
    59   30   59 1
    60   31   32 ar
    61   31   60 1
    62   32   33 ar
    63   32   61 1
    64   33   34 1
##########                 Name:              T532165
##########          Protonation:                   96
##########               SMILES:   c1cc(ccc1C(F)(F)F)NC(=O)N[C@@H]2CC[NH+](C2)CCCCCNC(=O)/C=C\c3ccc(c(c3)Cl)Cl
##########            Long Name:   uoromethyl)phenyl]carbamoylamino]pyrrolidin-1-ium-1-yl]pentyl]prop-2-enamide
##########          FlexRecCode: 1
##########               Number:                   25
##########   Ligand Source File: /raidb/db2/rgc/tcams/tcams-0000970.db2.gz
##########           GlobalRank: 180
##########                 Rank:                    1
##########               Setnum:                   26
##########             Matchnum:                  318
##########                Cloud:                    1
##########        Electrostatic:           -52.938488
##########        Van der Waals:           -25.041292
##########  Ligand Polar Desolv:            14.687969
########## Ligand Apolar Desolv:            -3.311383
##########      Internal Energy:             0.000000
##########      Receptor Energy: 0.0
########## Receptor Desolvation:             0.000000
########## Receptor Hydrophobic:             0.000000
##########         Total Energy: -66.6
##########        Ligand Charge:             1.000000
##########            Arbitrary:    +999.9990
##########     heavy atom count:   37
##########           pose count:    1
##########        Ligand Energy:             0.000000
# num electro vdwattr vdwrepu polsolv apolsol rdesolv rhydroe totalscore fullpol fullapo
#   1    2.03   -1.40    0.46   -0.19   -0.26    0.00    0.00       0.65   -0.35   -0.48
#   2   -4.02   -1.33    0.18    0.85   -0.04    0.00    0.00      -4.35    1.46   -0.07
#   3    1.70   -2.84    4.03   -0.33   -0.29    0.00    0.00       2.26   -0.51   -0.45
#   4    1.03   -1.68    0.47   -0.24   -0.27    0.00    0.00      -0.68   -0.40   -0.45
#   5    1.43   -1.58    0.26   -0.66   -0.19    0.00    0.00      -0.73   -1.30   -0.38
#   6    0.50   -2.00    0.78   -0.24   -0.23    0.00    0.00      -1.18   -0.46   -0.44
#   7    1.80   -1.91    0.45   -0.61   -0.21    0.00    0.00      -0.47   -1.17   -0.40
#   8   -2.30   -1.45    0.16    1.00   -0.29    0.00    0.00      -2.88    2.32   -0.68
#   9   10.76   -1.54    0.20   -4.93    0.80    0.00    0.00       5.27  -10.53    1.70
#  10  -14.34   -1.40    0.20    4.48   -0.86    0.00    0.00     -11.91   10.92   -2.09
#  11   10.71   -1.10    0.15   -2.18    0.11    0.00    0.00       7.68   -6.60    0.32
#  12   19.39   -2.39    1.33   -7.45    1.01    0.00    0.00      11.89  -15.86    2.14
#  13   -6.18   -1.75    1.14    1.58   -0.17    0.00    0.00      -5.38    3.15   -0.33
#  14    6.75   -2.98    1.42   -2.56   -0.17    0.00    0.00       2.46   -4.27   -0.28
#  15    0.54   -2.49    0.97    0.18   -0.25    0.00    0.00      -1.05    0.32   -0.45
#  16   16.39   -2.19    1.27   -5.29    0.19    0.00    0.00      10.37  -12.43    0.45
#  17  -25.88   -0.13    0.02    6.76    0.22    0.00    0.00     -19.00   17.18    0.56
#  18    0.25   -0.97    0.22    0.09   -0.11    0.00    0.00      -0.52    0.27   -0.32
#  19    2.88   -0.52    0.05   -1.02   -0.05    0.00    0.00       1.34   -4.32   -0.21
#  20    2.78   -1.07    0.30   -0.89   -0.07    0.00    0.00       1.04   -2.91   -0.22
#  21    1.44   -0.37    0.02   -0.51   -0.05    0.00    0.00       0.54   -2.43   -0.22
#  22   -0.64   -0.58    0.07    0.38   -0.10    0.00    0.00      -0.87    1.57   -0.43
#  23   15.69   -1.44    0.34   -2.77    0.66    0.00    0.00      12.49   -9.72    2.33
#  24   -9.41   -0.98    0.15    1.28   -0.15    0.00    0.00      -9.11    4.96   -0.58
#  25    3.26   -0.58    0.03   -0.64    0.07    0.00    0.00       2.13   -2.90    0.30
#  26    5.83   -1.25    0.22   -0.69   -0.14    0.00    0.00       3.96   -2.19   -0.45
#  27    0.28   -1.21    0.32   -0.16   -0.12    0.00    0.00      -0.89   -0.58   -0.44
#  28    1.07   -0.61    0.05   -0.05   -0.06    0.00    0.00       0.39   -0.25   -0.31
#  29    0.78   -1.18    0.29   -0.05   -0.08    0.00    0.00      -0.24   -0.19   -0.31
#  30    1.62   -0.67    0.09   -0.10   -0.09    0.00    0.00       0.85   -0.48   -0.46
#  31    0.16   -0.30    0.01   -0.02   -0.04    0.00    0.00      -0.19   -0.16   -0.30
#  32    0.14   -1.28    0.48   -0.02   -0.15    0.00    0.00      -0.83   -0.13   -0.95
#  33    0.28   -0.17    0.00   -0.01   -0.02    0.00    0.00       0.08   -0.15   -0.30
#  34    0.12   -0.16    0.00    0.00   -0.04    0.00    0.00      -0.08   -0.11   -0.95
#  35    0.84   -0.23    0.00   -0.04   -0.04    0.00    0.00       0.53   -0.46   -0.45
#  36    0.66   -0.91    0.27    0.20   -0.16    0.00    0.00       0.05    0.56   -0.45
#  37    1.02   -1.34    0.15   -0.56   -0.16    0.00    0.00      -0.89   -1.57   -0.46
#  38    0.22   -1.48    0.19   -0.21   -0.17    0.00    0.00      -1.45   -0.53   -0.44
#  39   -1.56   -0.47    0.17    0.34   -0.13    0.00    0.00      -1.64    0.74   -0.27
#  40   -2.99   -0.44    0.06    0.52   -0.11    0.00    0.00      -2.95    1.03   -0.22
#  41   -6.47   -0.04    0.00    3.77    0.25    0.00    0.00      -2.49    9.06    0.59
#  42   -9.02   -0.15    0.06    5.28    0.26    0.00    0.00      -3.57   11.81    0.58
#  43   -6.93   -1.31    4.78    0.91   -0.12    0.00    0.00      -2.67    1.93   -0.26
#  44   -3.56   -2.08    6.38    1.51   -0.16    0.00    0.00       2.08    2.57   -0.28
#  45   -5.85   -1.61    1.58    0.59   -0.18    0.00    0.00      -5.46    0.91   -0.28
#  46   -4.63   -0.88    0.75    2.52   -0.10    0.00    0.00      -2.34    5.30   -0.22
#  47   -5.76   -1.64    2.09    3.08   -0.17    0.00    0.00      -2.39    4.95   -0.28
#  48   -3.23   -0.17    0.01    0.96   -0.05    0.00    0.00      -2.48    5.52   -0.28
#  49   -3.17   -0.76    1.08    1.74   -0.10    0.00    0.00      -1.21    5.09   -0.28
#  50   -1.52   -0.09    0.00    0.26   -0.02    0.00    0.00      -1.36    3.26   -0.23
#  51   -1.10   -0.11    0.01    0.33   -0.03    0.00    0.00      -0.89    3.23   -0.28
#  52   -1.70   -0.94    1.54    0.53   -0.10    0.00    0.00      -0.68    1.47   -0.28
#  53   -3.26   -0.64    0.48    0.50   -0.09    0.00    0.00      -3.01    1.61   -0.28
#  54   -0.85   -0.05    0.00    0.10   -0.01    0.00    0.00      -0.82    1.95   -0.28
#  55   -0.36   -0.07    0.00    0.14   -0.02    0.00    0.00      -0.31    1.78   -0.28
#  56   -0.22   -0.07    0.00    0.02   -0.02    0.00    0.00      -0.29    0.27   -0.28
#  57   -0.22   -0.42    0.20    0.13   -0.08    0.00    0.00      -0.39    0.46   -0.28
#  58  -15.27   -0.04    0.00    2.10    0.16    0.00    0.00     -13.06    7.55    0.56
#  59   -4.37   -0.28    0.03    1.03   -0.08    0.00    0.00      -3.67    3.40   -0.28
#  60   -3.62   -0.35    0.17    0.62   -0.07    0.00    0.00      -3.27    2.48   -0.28
#  61   -4.36   -0.59    0.37    0.39   -0.08    0.00    0.00      -4.27    1.22   -0.25
#  62   -2.07   -0.15    0.02    0.13   -0.04    0.00    0.00      -2.11    0.96   -0.28
#  63   -1.17   -0.04    0.00    0.04   -0.01    0.00    0.00      -1.18    1.01   -0.28
#  64   -4.65   -0.21    0.05    0.94   -0.04    0.00    0.00      -3.91    6.12   -0.28
#  65   -3.40   -0.15    0.00    0.80   -0.03    0.00    0.00      -2.78    6.30   -0.26
#  66   -0.82   -0.23    0.03    0.65   -0.06    0.00    0.00      -0.43    3.10   -0.28
#  67   -0.39   -0.33    0.05    0.39   -0.08    0.00    0.00      -0.35    1.39   -0.27

@<TRIPOS>MOLECULE
          T532165        96
   67    69     0     0     0



@<TRIPOS>ATOM
      1 F1          7.9524   -13.5316    96.3503 F          1          -0.1745
      2 C1          8.5631   -12.8703    97.4212 C.3        1           0.5085
      3 F2          8.1455   -13.4477    98.6251 F          1          -0.1751
      4 F3          9.9530   -12.9830    97.3073 F          1          -0.1754
      5 C2          8.1738   -11.4146    97.4005 C.ar       1          -0.1934
      6 C3          8.6643   -10.5554    98.3666 C.ar       1          -0.0469
      7 C4          8.3097    -9.2206    98.3499 C.ar       1          -0.1245
      8 C5          7.4596    -8.7417    97.3618 C.ar       1           0.1870
      9 N1          7.0987    -7.3898    97.3420 N.am       1          -0.6773
     10 C6          6.8212    -6.7835    96.1707 C.2        1           0.7107
     11 O1          6.8844    -7.4111    95.1312 O.2        1          -0.5552
     12 N2          6.4736    -5.4815    96.1515 N.am       1          -0.7343
     13 C7          6.1719    -4.8225    94.8784 C.3        1           0.1514
     14 C8          5.7562    -3.3757    95.1154 C.3        1          -0.1585
     15 C9          4.3433    -3.2657    94.5313 C.3        1          -0.0133
     16 N3          4.2856    -4.3554    93.5256 N.4        1          -0.3870
     17 H1          4.7863    -4.0956    92.6890 H          1           0.4306
     18 C10         2.8923    -4.6981    93.2107 C.3        1          -0.0093
     19 C11         2.8656    -5.8224    92.1731 C.3        1          -0.1483
     20 C12         3.5769    -5.3587    90.9004 C.3        1          -0.1149
     21 C13         3.5502    -6.4829    89.8629 C.3        1          -0.1328
     22 C14         4.2615    -6.0192    88.5901 C.3        1           0.1188
     23 N4          5.6510    -5.6774    88.9040 N.am       1          -0.7315
     24 C15         6.6100    -5.8288    87.9692 C.2        1           0.5394
     25 O2          6.3215    -6.2495    86.8643 O.2        1          -0.5220
     26 C16         7.9985    -5.4873    88.2829 C.2        1          -0.2157
     27 C17         8.6389    -6.1219    89.2856 C.2        1          -0.0114
     28 C18         8.0480    -7.3265    89.8902 C.ar       1          -0.0561
     29 C19         7.7354    -7.3473    91.2535 C.ar       1          -0.0335
     30 C20         7.1817    -8.4783    91.8136 C.ar       1          -0.1073
     31 C21         6.9342    -9.5937    91.0299 C.ar       1          -0.0192
     32 Cl1         6.2360   -11.0137    91.7439 Cl         1          -0.0474
     33 C22         7.2411    -9.5808    89.6780 C.ar       1          -0.0383
     34 Cl2         6.9264   -10.9837    88.7048 Cl         1          -0.0460
     35 C23         7.7909    -8.4535    89.1031 C.ar       1          -0.0788
     36 C24         4.9623    -5.4781    94.2136 C.3        1          -0.0190
     37 C25         6.9687    -9.6072    96.3931 C.ar       1          -0.1453
     38 C26         7.3313   -10.9398    96.4121 C.ar       1          -0.0449
     39 H2          9.3252   -10.9284    99.1349 H          1           0.1426
     40 H3          8.6929    -8.5501    99.1049 H          1           0.1481
     41 H4          7.0482    -6.8891    98.1712 H          1           0.4138
     42 H5          6.4232    -4.9807    96.9808 H          1           0.4069
     43 H6          7.0373    -4.8637    94.2169 H          1           0.1309
     44 H7          5.7433    -3.1549    96.1827 H          1           0.1027
     45 H8          6.4341    -2.6970    94.5978 H          1           0.1204
     46 H9          3.5951    -3.4226    95.3083 H          1           0.1366
     47 H10         4.2015    -2.2965    94.0532 H          1           0.1373
     48 H11         2.3855    -5.0285    94.1174 H          1           0.1328
     49 H12         2.3841    -3.8213    92.8095 H          1           0.1311
     50 H13         3.3736    -6.6993    92.5744 H          1           0.0886
     51 H14         1.8318    -6.0766    91.9395 H          1           0.0893
     52 H15         3.0688    -4.4818    90.4990 H          1           0.0789
     53 H16         4.6107    -5.1043    91.1340 H          1           0.0781
     54 H17         4.0585    -7.3598    90.2642 H          1           0.0743
     55 H18         2.5164    -6.7373    89.6293 H          1           0.0747
     56 H19         4.2425    -6.8204    87.8510 H          1           0.0693
     57 H20         3.7534    -5.1425    88.1887 H          1           0.0691
     58 H21         5.8809    -5.3421    89.7847 H          1           0.4016
     59 H22         8.5098    -4.7270    87.7113 H          1           0.1388
     60 H23         9.5855    -5.7462    89.6450 H          1           0.1466
     61 H24         7.9281    -6.4789    91.8661 H          1           0.1263
     62 H25         6.9404    -8.4954    92.8661 H          1           0.1400
     63 H26         8.0256    -8.4427    88.0489 H          1           0.1433
     64 H27         5.2830    -6.2307    93.4933 H          1           0.1461
     65 H28         4.3056    -5.9189    94.9637 H          1           0.1378
     66 H29         6.3074    -9.2379    95.6233 H          1           0.1402
     67 H30         6.9534   -11.6125    95.6563 H          1           0.1449
@<TRIPOS>BOND
     1    1    2 1
     2    2    3 1
     3    2    4 1
     4    2    5 1
     5    5   38 ar
     6    5    6 ar
     7    6    7 ar
     8    6   39 1
     9    7    8 ar
    10    7   40 1
    11    8    9 1
    12    8   37 ar
    13    9   10 am
    14    9   41 1
    15   10   11 2
    16   10   12 am
    17   12   13 1
    18   12   42 1
    19   13   36 1
    20   13   14 1
    21   13   43 1
    22   14   15 1
    23   14   44 1
    24   14   45 1
    25   15   16 1
    26   15   46 1
    27   15   47 1
    28   16   17 1
    29   16   18 1
    30   16   36 1
    31   18   19 1
    32   18   48 1
    33   18   49 1
    34   19   20 1
    35   19   50 1
    36   19   51 1
    37   20   21 1
    38   20   52 1
    39   20   53 1
    40   21   22 1
    41   21   54 1
    42   21   55 1
    43   22   23 1
    44   22   56 1
    45   22   57 1
    46   23   24 am
    47   23   58 1
    48   24   25 2
    49   24   26 1
    50   26   27 2
    51   26   59 1
    52   27   28 1
    53   27   60 1
    54   28   35 ar
    55   28   29 ar
    56   29   30 ar
    57   29   61 1
    58   30   31 ar
    59   30   62 1
    60   31   32 1
    61   31   33 ar
    62   33   34 1
    63   33   35 ar
    64   35   63 1
    65   36   64 1
    66   36   65 1
    67   37   38 ar
    68   37   66 1
    69   38   67 1
##########                 Name:              T531258
##########          Protonation:                   16
##########               SMILES:   c1ccc(cc1)CNc2nc([nH+]c(n2)N3CCC[C@@H]4[C@@H]3CCCC4)NCCc5c[nH]cn5
##########            Long Name:   yl]-N4-benzyl-N2-[2-(1H-imidazol-4-yl)ethyl]-1,3,5-triazin-1-ium-2,4-diamine
##########          FlexRecCode: 1
##########               Number:                  163
##########   Ligand Source File: /raidb/db2/rgc/tcams/tcams-0000850.db2.gz
##########           GlobalRank: 181
##########                 Rank:                    1
##########               Setnum:                  164
##########             Matchnum:                  217
##########                Cloud:                    1
##########        Electrostatic:           -34.952961
##########        Van der Waals:           -30.313490
##########  Ligand Polar Desolv:             4.583965
########## Ligand Apolar Desolv:            -5.908310
##########      Internal Energy:             0.000000
##########      Receptor Energy: 0.0
########## Receptor Desolvation:             0.000000
########## Receptor Hydrophobic:             0.000000
##########         Total Energy: -66.59
##########        Ligand Charge:             1.000000
##########            Arbitrary:    +999.9990
##########     heavy atom count:   32
##########           pose count:    1
##########        Ligand Energy:             0.000000
# num electro vdwattr vdwrepu polsolv apolsol rdesolv rhydroe totalscore fullpol fullapo
#   1   -1.31   -0.47    0.07    0.45   -0.07    0.00    0.00      -1.34    2.29   -0.38
#   2    0.42   -0.68    0.14   -0.17   -0.07    0.00    0.00      -0.36   -0.65   -0.25
#   3    0.31   -1.13    0.20   -0.18   -0.23    0.00    0.00      -1.04   -0.55   -0.70
#   4    0.58   -1.27    0.17   -0.32   -0.37    0.00    0.00      -1.20   -0.87   -1.01
#   5   17.80   -3.20    2.12   -3.41    0.55    0.00    0.00      13.85   -7.62    1.22
#   6   -6.50   -2.98    1.87    0.88   -1.50    0.00    0.00      -8.24    1.96   -3.34
#   7   13.54   -2.29    1.80   -2.28    0.80    0.00    0.00      11.58   -6.16    2.17
#   8   15.73   -1.26    0.27   -3.65    0.47    0.00    0.00      11.56  -13.51    1.72
#   9  -17.04   -1.49    0.56    3.66   -1.28    0.00    0.00     -15.59   13.75   -4.81
#  10   23.85   -2.43    2.61   -3.73    0.29    0.00    0.00      20.58  -12.90    0.99
#  11  -24.23   -0.18    0.10    3.26    0.10    0.00    0.00     -20.95   10.78    0.32
#  12  -18.82   -1.06    0.25    3.31   -1.20    0.00    0.00     -17.52   12.76   -4.63
#  13    9.01   -0.80    0.06   -2.76    0.26    0.00    0.00       5.77  -10.52    1.01
#  14   -8.00   -1.07    0.26    2.75   -1.22    0.00    0.00      -7.28   10.84   -4.81
#  15    4.21   -1.08    0.17   -2.73    0.46    0.00    0.00       1.03  -10.31    1.73
#  16   -0.26   -1.36    0.56    1.00   -0.15    0.00    0.00      -0.20    2.89   -0.44
#  17    0.74   -1.48    0.21   -0.52   -0.14    0.00    0.00      -1.20   -1.35   -0.37
#  18    0.60   -1.57    0.19   -0.58   -0.23    0.00    0.00      -1.59   -1.16   -0.46
#  19    0.89   -1.88    0.27   -0.79   -0.27    0.00    0.00      -1.78   -1.36   -0.47
#  20    0.96   -2.24    0.80   -0.64   -0.26    0.00    0.00      -1.38   -1.16   -0.47
#  21    1.59   -2.00    0.64   -0.69   -0.24    0.00    0.00      -0.69   -1.36   -0.47
#  22    0.97   -1.55    0.28   -0.48   -0.19    0.00    0.00      -0.97   -1.16   -0.46
#  23    9.35   -1.52    0.79   -2.66    0.46    0.00    0.00       6.42  -11.27    1.96
#  24   17.17   -1.11    0.22   -3.06    0.49    0.00    0.00      13.71  -10.16    1.63
#  25   -2.91   -0.94    0.12    0.81   -0.20    0.00    0.00      -3.11    1.96   -0.47
#  26    3.20   -1.04    0.16   -0.97   -0.11    0.00    0.00       1.25   -2.34   -0.26
#  27    3.18   -0.93    0.10   -0.78   -0.09    0.00    0.00       1.48   -1.91   -0.22
#  28    2.13   -0.47    0.01   -0.32   -0.04    0.00    0.00       1.32   -1.18   -0.13
#  29    2.18   -0.58    0.04   -0.39   -0.06    0.00    0.00       1.20   -1.35   -0.22
#  30    1.39   -0.44    0.05   -0.28   -0.05    0.00    0.00       0.66   -1.36   -0.25
#  31    1.80   -0.68    0.16   -0.37   -0.06    0.00    0.00       0.85   -1.50   -0.25
#  32    2.40   -0.49    0.04   -0.28   -0.04    0.00    0.00       1.64   -1.23   -0.16
#  33   -4.60   -0.71    0.10    0.75   -0.07    0.00    0.00      -4.54    2.60   -0.26
#  34   -0.90   -0.05    0.00    0.12   -0.01    0.00    0.00      -0.84    2.56   -0.28
#  35   -0.96   -0.17    0.05    0.23   -0.03    0.00    0.00      -0.88    1.85   -0.27
#  36   -1.09   -0.66    0.72    0.78   -0.09    0.00    0.00      -0.34    2.52   -0.28
#  37   -0.57   -0.09    0.00    0.13   -0.03    0.00    0.00      -0.56    1.36   -0.28
#  38   -2.00   -0.18    0.01    0.78   -0.06    0.00    0.00      -1.44    3.53   -0.28
#  39  -19.75   -0.21    0.11    3.38    0.29    0.00    0.00     -16.18    6.92    0.59
#  40   -8.44   -0.79    0.50    1.69   -0.14    0.00    0.00      -7.18    3.51   -0.28
#  41  -13.60   -0.03    0.00    2.56    0.15    0.00    0.00     -10.92    9.72    0.58
#  42   -3.05   -0.01    0.00    0.97    0.08    0.00    0.00      -2.01    6.83    0.58
#  43   -0.09   -0.45    0.29    0.41   -0.07    0.00    0.00       0.08    1.61   -0.28
#  44    0.52   -1.18    1.84    0.59   -0.10    0.00    0.00       1.68    1.65   -0.28
#  45   -0.90   -0.37    0.08    0.75   -0.11    0.00    0.00      -0.54    1.99   -0.28
#  46   -0.71   -0.56    0.16    0.67   -0.16    0.00    0.00      -0.60    1.20   -0.28
#  47   -1.18   -0.83    1.53    0.52   -0.15    0.00    0.00      -0.12    0.94   -0.28
#  48   -2.46   -0.43    0.07    0.55   -0.13    0.00    0.00      -2.40    1.20   -0.28
#  49   -1.56   -0.23    0.01    0.48   -0.07    0.00    0.00      -1.36    1.97   -0.28
#  50   -1.91   -0.26    0.03    0.76   -0.05    0.00    0.00      -1.42    3.18   -0.20
#  51   -3.77   -0.45    0.08    1.11   -0.12    0.00    0.00      -3.14    2.62   -0.28
#  52   -1.23   -0.21    0.01    0.27   -0.07    0.00    0.00      -1.22    1.12   -0.28
#  53   -2.50   -0.89    0.87    0.77   -0.11    0.00    0.00      -1.87    1.95   -0.28
#  54   -2.15   -0.29    0.03    0.23   -0.10    0.00    0.00      -2.28    0.66   -0.28
#  55   -2.16   -0.55    0.21    0.41   -0.10    0.00    0.00      -2.19    1.17   -0.28
#  56   -1.20   -0.11    0.00    0.08   -0.03    0.00    0.00      -1.26    0.80   -0.28
#  57   -1.64   -0.15    0.01    0.09   -0.05    0.00    0.00      -1.75    0.51   -0.28
#  58   -1.40   -0.36    0.10    0.22   -0.08    0.00    0.00      -1.51    0.80   -0.28
#  59   -0.48   -0.07    0.00    0.04   -0.02    0.00    0.00      -0.54    0.53   -0.28
#  60   -0.54   -0.16    0.03    0.04   -0.04    0.00    0.00      -0.67    0.31   -0.28
#  61   -0.56   -0.11    0.01    0.07   -0.03    0.00    0.00      -0.62    0.65   -0.28
#  62   -1.18   -0.76    1.08    0.21   -0.08    0.00    0.00      -0.73    0.68   -0.28
#  63   -1.17   -0.07    0.00    0.07   -0.02    0.00    0.00      -1.19    1.06   -0.24
#  64   -2.73   -0.23    0.05    0.23   -0.04    0.00    0.00      -2.71    1.35   -0.21
#  65   -3.94   -0.45    0.14    0.52   -0.09    0.00    0.00      -3.82    1.64   -0.28

@<TRIPOS>MOLECULE
          T531258        16
   65    69     0     0     0



@<TRIPOS>ATOM
      1 C1          9.1546    -8.0311    90.2699 C.3        1           0.0978
      2 C2         10.5509    -7.4061    90.2507 C.3        1          -0.0362
      3 C3         10.5342    -6.1650    89.3958 C.2        1          -0.0178
      4 C4         11.5688    -5.6817    88.6820 C.2        1          -0.0331
      5 N1         11.1236    -4.5481    88.0572 N.pl3      1          -0.5653
      6 C5          9.8315    -4.3780    88.4112 C.2        1           0.1979
      7 N2          9.4844    -5.3516    89.2079 N.2        1          -0.4939
      8 N3          8.1969    -7.0701    90.8228 N.pl3      1          -0.6626
      9 C6          7.4838    -7.3841    91.9618 C.ar       1           0.6947
     10 N4          6.6108    -6.5144    92.4605 N.ar       1          -0.6390
     11 H1          6.4748    -5.6590    92.0237 H          1           0.4332
     12 C7          5.9239    -6.8169    93.5576 C.ar       1           0.6835
     13 N5          6.1098    -7.9893    94.1561 N.ar       1          -0.6029
     14 C8          6.9827    -8.8591    93.6576 C.ar       1           0.6656
     15 N6          7.1755   -10.0762    94.2787 N.pl3      1          -0.6371
     16 C9          6.4182   -10.4099    95.4875 C.3        1           0.1661
     17 C10         7.3736   -10.6600    96.6258 C.ar       1          -0.1316
     18 C11         7.8606   -11.9337    96.8522 C.ar       1          -0.0946
     19 C12         8.7370   -12.1631    97.8964 C.ar       1          -0.1199
     20 C13         9.1266   -11.1187    98.7139 C.ar       1          -0.0983
     21 C14         8.6403    -9.8448    98.4870 C.ar       1          -0.1197
     22 C15         7.7673    -9.6146    97.4402 C.ar       1          -0.0944
     23 N7          7.6659    -8.5587    92.5573 N.ar       1          -0.6207
     24 N8          5.0180    -5.9136    94.0755 N.pl3      1          -0.5495
     25 C16         5.1774    -5.3798    95.4369 C.3        1           0.0993
     26 C17         3.8801    -5.6042    96.2187 C.3        1          -0.1351
     27 C18         2.6997    -5.0156    95.4399 C.3        1          -0.1234
     28 C19         2.5909    -5.7172    94.0871 C.3        1          -0.0978
     29 C20         1.3921    -5.1899    93.3000 C.3        1          -0.1132
     30 C21         1.3040    -5.9358    91.9654 C.3        1          -0.1252
     31 C22         2.5879    -5.7195    91.1634 C.3        1          -0.1246
     32 C23         3.7922    -6.2251    91.9631 C.3        1          -0.1056
     33 C24         3.8732    -5.4553    93.2812 C.3        1           0.1521
     34 H2          8.8601    -8.2938    89.2538 H          1           0.0829
     35 H3          9.1667    -8.9286    90.8881 H          1           0.0935
     36 H4         10.8454    -7.1433    91.2667 H          1           0.0932
     37 H5         11.2634    -8.1210    89.8394 H          1           0.0934
     38 H6         12.5594    -6.1067    88.6155 H          1           0.1800
     39 H7         11.6397    -3.9741    87.4698 H          1           0.4276
     40 H8          9.1905    -3.5721    88.0857 H          1           0.2127
     41 H9          8.0641    -6.2130    90.3883 H          1           0.4430
     42 H10         7.8127   -10.7109    93.9149 H          1           0.4309
     43 H11         5.7578    -9.5811    95.7429 H          1           0.0937
     44 H12         5.8241   -11.3059    95.3084 H          1           0.0932
     45 H13         7.5561   -12.7496    96.2136 H          1           0.1249
     46 H14         9.1169   -13.1584    98.0737 H          1           0.1289
     47 H15         9.8107   -11.2981    99.5301 H          1           0.1289
     48 H16         8.9444    -9.0289    99.1259 H          1           0.1291
     49 H17         7.3902    -8.6186    97.2606 H          1           0.1252
     50 H18         5.9977    -5.8950    95.9367 H          1           0.0765
     51 H19         5.3926    -4.3125    95.3869 H          1           0.1043
     52 H20         3.7231    -6.6734    96.3616 H          1           0.0737
     53 H21         3.9532    -5.1160    97.1904 H          1           0.0956
     54 H22         1.7794    -5.1673    96.0040 H          1           0.0814
     55 H23         2.8613    -3.9488    95.2850 H          1           0.0743
     56 H24         2.4717    -6.7892    94.2440 H          1           0.0796
     57 H25         0.4788    -5.3561    93.8716 H          1           0.0745
     58 H26         1.5185    -4.1233    93.1140 H          1           0.0694
     59 H27         1.1700    -7.0010    92.1540 H          1           0.0636
     60 H28         0.4538    -5.5603    91.3960 H          1           0.0697
     61 H29         2.5233    -6.2654    90.2221 H          1           0.0717
     62 H30         2.7109    -4.6565    90.9566 H          1           0.0641
     63 H31         3.6750    -7.2897    92.1650 H          1           0.0849
     64 H32         4.7052    -6.0593    91.3913 H          1           0.0895
     65 H33         3.9711    -4.3877    93.0843 H          1           0.0977
@<TRIPOS>BOND
     1    1    2 1
     2    1    8 1
     3    1   34 1
     4    1   35 1
     5    2    3 1
     6    2   36 1
     7    2   37 1
     8    3    7 1
     9    3    4 2
    10    4    5 1
    11    4   38 1
    12    5    6 1
    13    5   39 1
    14    6    7 2
    15    6   40 1
    16    8    9 1
    17    8   41 1
    18    9   23 ar
    19    9   10 ar
    20   10   11 1
    21   10   12 ar
    22   12   13 ar
    23   12   24 1
    24   13   14 ar
    25   14   15 1
    26   14   23 ar
    27   15   16 1
    28   15   42 1
    29   16   17 1
    30   16   43 1
    31   16   44 1
    32   17   22 ar
    33   17   18 ar
    34   18   19 ar
    35   18   45 1
    36   19   20 ar
    37   19   46 1
    38   20   21 ar
    39   20   47 1
    40   21   22 ar
    41   21   48 1
    42   22   49 1
    43   24   33 1
    44   24   25 1
    45   25   26 1
    46   25   50 1
    47   25   51 1
    48   26   27 1
    49   26   52 1
    50   26   53 1
    51   27   28 1
    52   27   54 1
    53   27   55 1
    54   28   33 1
    55   28   29 1
    56   28   56 1
    57   29   30 1
    58   29   57 1
    59   29   58 1
    60   30   31 1
    61   30   59 1
    62   30   60 1
    63   31   32 1
    64   31   61 1
    65   31   62 1
    66   32   33 1
    67   32   63 1
    68   32   64 1
    69   33   65 1
##########                 Name:              T533618
##########          Protonation:                   99
##########               SMILES:   c1cc(cc(c1)Cl)NC(=O)[C@H]2CCC[NH+](C2)CCCCCNC(=O)/C=C\c3ccc(c(c3)Cl)Cl
##########            Long Name:   -(3,4-dichlorophenyl)prop-2-enoyl]amino]pentyl]piperidin-1-ium-3-carboxamide
##########          FlexRecCode: 1
##########               Number:                   31
##########   Ligand Source File: /raidb/db2/rgc/tcams/tcams-0001130.db2.gz
##########           GlobalRank: 183
##########                 Rank:                    1
##########               Setnum:                  277
##########             Matchnum:                  518
##########                Cloud:                    1
##########        Electrostatic:           -39.379498
##########        Van der Waals:           -28.390211
##########  Ligand Polar Desolv:             5.271351
########## Ligand Apolar Desolv:            -4.072394
##########      Internal Energy:             0.000000
##########      Receptor Energy: 0.0
########## Receptor Desolvation:             0.000000
########## Receptor Hydrophobic:             0.000000
##########         Total Energy: -66.57
##########        Ligand Charge:             1.000000
##########            Arbitrary:    +999.9990
##########     heavy atom count:   34
##########           pose count:    1
##########        Ligand Energy:             0.000000
# num electro vdwattr vdwrepu polsolv apolsol rdesolv rhydroe totalscore fullpol fullapo
#   1    0.37   -3.08    0.54   -0.41   -0.55    0.00    0.00      -3.12   -0.73   -0.99
#   2    0.19   -1.75    0.50   -0.20   -0.14    0.00    0.00      -1.41   -0.44   -0.30
#   3    1.75   -2.34    0.67   -0.76   -0.25    0.00    0.00      -0.93   -1.39   -0.46
#   4    1.92   -3.21    1.08   -0.64   -0.28    0.00    0.00      -1.13   -1.06   -0.47
#   5    2.14   -2.52    0.50   -0.91   -0.23    0.00    0.00      -1.02   -1.56   -0.40
#   6   -1.97   -1.56    0.17    1.15   -0.33    0.00    0.00      -2.55    2.35   -0.68
#   7   10.66   -1.39    0.18   -5.33    0.68    0.00    0.00       4.81  -12.46    1.60
#   8   -6.38   -1.18    0.11    4.11   -0.18    0.00    0.00      -3.53   11.06   -0.48
#   9    1.58   -2.20    0.89   -4.16    0.10    0.00    0.00      -3.79  -10.97    0.26
#  10    2.40   -0.60    0.03   -0.96   -0.07    0.00    0.00       0.80   -2.91   -0.20
#  11    3.07   -1.42    0.44   -1.52   -0.11    0.00    0.00       0.47   -3.46   -0.24
#  12    4.17   -1.48    0.38   -1.88   -0.11    0.00    0.00       1.08   -4.07   -0.24
#  13    0.49   -1.39    0.24   -0.11   -0.17    0.00    0.00      -0.94   -0.24   -0.37
#  14   13.57   -1.19    0.35   -3.88    0.09    0.00    0.00       8.94  -11.18    0.26
#  15  -21.21   -0.06    0.01    3.21    0.10    0.00    0.00     -17.95   11.19    0.36
#  16    0.19   -0.44    0.02    0.04   -0.08    0.00    0.00      -0.28    0.16   -0.35
#  17    2.93   -0.88    0.23   -1.08   -0.06    0.00    0.00       1.15   -3.69   -0.21
#  18    1.32   -0.47    0.05   -0.53   -0.05    0.00    0.00       0.31   -2.47   -0.22
#  19    0.73   -0.25    0.01   -0.31   -0.03    0.00    0.00       0.15   -2.16   -0.22
#  20   -0.22   -0.23    0.01    0.20   -0.06    0.00    0.00      -0.30    1.44   -0.43
#  21    0.95   -0.20    0.00   -0.72    0.19    0.00    0.00       0.22   -8.82    2.33
#  22   -0.45   -0.28    0.01    0.53   -0.07    0.00    0.00      -0.26    4.46   -0.58
#  23    0.28   -0.61    0.09   -0.45    0.05    0.00    0.00      -0.63   -2.38    0.29
#  24    0.13   -0.20    0.01   -0.19   -0.04    0.00    0.00      -0.29   -2.06   -0.45
#  25    0.01   -0.08    0.00   -0.02   -0.02    0.00    0.00      -0.12   -0.51   -0.44
#  26    0.06   -0.10    0.00   -0.01   -0.01    0.00    0.00      -0.06   -0.24   -0.30
#  27    0.04   -0.14    0.00   -0.01   -0.02    0.00    0.00      -0.12   -0.16   -0.31
#  28    0.19   -0.31    0.01   -0.05   -0.06    0.00    0.00      -0.22   -0.42   -0.46
#  29    0.05   -0.43    0.02   -0.02   -0.05    0.00    0.00      -0.43   -0.13   -0.30
#  30    0.16   -4.53    5.50   -0.03   -0.28    0.00    0.00       0.83   -0.09   -0.95
#  31    0.24   -0.26    0.00   -0.01   -0.03    0.00    0.00      -0.06   -0.12   -0.30
#  32    0.89   -1.12    0.13   -0.01   -0.18    0.00    0.00      -0.30   -0.07   -0.95
#  33    0.26   -0.13    0.00   -0.02   -0.03    0.00    0.00       0.08   -0.40   -0.45
#  34   -0.44   -0.66    0.09    0.13   -0.10    0.00    0.00      -0.98    0.42   -0.33
#  35    1.34   -1.49    0.23   -0.67   -0.18    0.00    0.00      -0.79   -1.68   -0.45
#  36   -1.97   -0.76    1.16    0.50   -0.14    0.00    0.00      -1.21    1.00   -0.28
#  37   -3.85   -1.31    1.26    1.11   -0.18    0.00    0.00      -2.96    1.78   -0.28
#  38   -2.69   -0.82    0.45    1.17   -0.13    0.00    0.00      -2.02    2.03   -0.22
#  39   -8.49   -0.03    0.00    3.04    0.18    0.00    0.00      -5.30    9.51    0.57
#  40   -1.75   -0.17    0.02    0.81   -0.04    0.00    0.00      -1.14    5.11   -0.28
#  41   -2.21   -0.49    0.15    1.61   -0.11    0.00    0.00      -1.06    4.02   -0.28
#  42   -2.52   -1.05    1.33    0.72   -0.10    0.00    0.00      -1.62    1.93   -0.27
#  43   -3.02   -0.23    0.01    0.64   -0.07    0.00    0.00      -2.66    2.63   -0.28
#  44   -2.33   -1.41    1.97    0.41   -0.11    0.00    0.00      -1.47    0.90   -0.25
#  45   -4.59   -0.63    0.26    2.60   -0.12    0.00    0.00      -2.48    5.93   -0.28
#  46   -5.34   -0.55    0.09    2.07   -0.11    0.00    0.00      -3.84    4.16   -0.22
#  47   -2.23   -0.08    0.00    0.31   -0.02    0.00    0.00      -2.03    3.87   -0.28
#  48   -2.39   -0.10    0.00    0.53   -0.03    0.00    0.00      -1.99    5.58   -0.28
#  49   -1.93   -0.36    0.12    0.88   -0.06    0.00    0.00      -1.35    3.16   -0.22
#  50   -1.93   -0.54    0.35    0.51   -0.08    0.00    0.00      -1.69    1.76   -0.28
#  51   -1.19   -0.11    0.00    0.13   -0.03    0.00    0.00      -1.20    1.12   -0.28
#  52   -0.70   -0.22    0.06    0.31   -0.05    0.00    0.00      -0.60    1.84   -0.28
#  53   -0.38   -0.08    0.00    0.16   -0.02    0.00    0.00      -0.32    1.91   -0.28
#  54   -0.46   -0.06    0.00    0.07   -0.01    0.00    0.00      -0.47    1.36   -0.28
#  55   -0.16   -0.10    0.01    0.02   -0.03    0.00    0.00      -0.26    0.19   -0.28
#  56   -0.12   -0.08    0.00    0.04   -0.02    0.00    0.00      -0.18    0.52   -0.28
#  57   -0.49    0.00    0.00    0.24    0.02    0.00    0.00      -0.23    6.95    0.56
#  58   -0.06   -0.05    0.00    0.18   -0.02    0.00    0.00       0.05    3.20   -0.28
#  59   -0.10   -0.01    0.00    0.04   -0.01    0.00    0.00      -0.07    2.39   -0.28
#  60   -0.14   -0.02    0.00    0.03   -0.01    0.00    0.00      -0.14    1.12   -0.25
#  61   -0.24   -0.10    0.00    0.09   -0.03    0.00    0.00      -0.27    0.87   -0.28
#  62   -0.37   -0.03    0.00    0.03   -0.01    0.00    0.00      -0.37    0.93   -0.28
#  63   -4.84   -0.29    0.06    1.11   -0.08    0.00    0.00      -4.03    4.06   -0.28
#  64   -3.42   -0.14    0.01    0.89   -0.04    0.00    0.00      -2.69    6.92   -0.28
#  65   -0.88   -0.24    0.02    0.56   -0.07    0.00    0.00      -0.61    2.32   -0.28

@<TRIPOS>MOLECULE
          T533618        99
   65    67     0     0     0



@<TRIPOS>ATOM
      1 Cl1         8.4453   -11.8804    97.5789 Cl         1          -0.0497
      2 C1          8.3808   -10.1936    97.9843 C.ar       1          -0.0173
      3 C2          9.1821    -9.6944    98.9966 C.ar       1          -0.1102
      4 C3          9.1335    -8.3517    99.3217 C.ar       1          -0.0874
      5 C4          8.2845    -7.5038    98.6374 C.ar       1          -0.1126
      6 C5          7.4791    -8.0008    97.6211 C.ar       1           0.1323
      7 N1          6.6183    -7.1440    96.9264 N.am       1          -0.6492
      8 C6          5.4644    -7.6171    96.4156 C.2        1           0.5179
      9 O1          5.1720    -8.7855    96.5582 O.2        1          -0.5372
     10 C7          4.5373    -6.6943    95.6673 C.3        1          -0.1337
     11 C8          4.0971    -5.5533    96.5886 C.3        1          -0.1297
     12 C9          3.2037    -4.5955    95.7960 C.3        1          -0.1509
     13 C10         3.9774    -4.0788    94.5811 C.3        1          -0.0139
     14 N2          4.3679    -5.2059    93.7255 N.4        1          -0.3856
     15 H1          4.8402    -4.8556    92.9057 H          1           0.4299
     16 C11         3.1663    -5.9454    93.3163 C.3        1          -0.0087
     17 C12         2.2334    -5.0134    92.5403 C.3        1          -0.1477
     18 C13         0.9820    -5.7834    92.1140 C.3        1          -0.1139
     19 C14         1.3857    -6.9591    91.2220 C.3        1          -0.1329
     20 C15         0.1343    -7.7291    90.7957 C.3        1           0.1189
     21 N3          0.5210    -8.8549    89.9416 N.am       1          -0.7309
     22 C16         1.3446    -9.8098    90.4171 C.2        1           0.5389
     23 O2          1.7673    -9.7369    91.5561 O.2        1          -0.5220
     24 C17         1.7308   -10.9347    89.5636 C.2        1          -0.2143
     25 C18         2.3847   -10.7093    88.4059 C.2        1          -0.0127
     26 C19         2.9123    -9.3684    88.1078 C.ar       1          -0.0559
     27 C20         2.4722    -8.6761    86.9747 C.ar       1          -0.0319
     28 C21         2.9700    -7.4203    86.7014 C.ar       1          -0.1075
     29 C22         3.9043    -6.8427    87.5456 C.ar       1          -0.0192
     30 Cl2         4.5252    -5.2601    87.1935 Cl         1          -0.0479
     31 C23         4.3454    -7.5224    88.6705 C.ar       1          -0.0385
     32 Cl3         5.5160    -6.7891    89.7222 Cl         1          -0.0467
     33 C24         3.8516    -8.7779    88.9591 C.ar       1          -0.0792
     34 C25         5.2665    -6.1075    94.4568 C.3        1           0.0152
     35 C26         7.5336    -9.3489    97.2922 C.ar       1          -0.1288
     36 H2          9.8462   -10.3553    99.5338 H          1           0.1416
     37 H3          9.7599    -7.9652   100.1121 H          1           0.1415
     38 H4          8.2469    -6.4550    98.8926 H          1           0.1445
     39 H5          6.8521    -6.2095    96.8125 H          1           0.4202
     40 H6          3.6622    -7.2505    95.3313 H          1           0.1501
     41 H7          3.5393    -5.9595    97.4324 H          1           0.1034
     42 H8          4.9742    -5.0183    96.9524 H          1           0.0991
     43 H9          2.3103    -5.1229    95.4616 H          1           0.1202
     44 H10         2.9168    -3.7562    96.4294 H          1           0.0842
     45 H11         3.3463    -3.3946    94.0138 H          1           0.1318
     46 H12         4.8708    -3.5526    94.9175 H          1           0.1325
     47 H13         3.4539    -6.7829    92.6806 H          1           0.1319
     48 H14         2.6516    -6.3206    94.2007 H          1           0.1296
     49 H15         1.9458    -4.1758    93.1758 H          1           0.0867
     50 H16         2.7481    -4.6381    91.6557 H          1           0.0877
     51 H17         0.4673    -6.1584    92.9986 H          1           0.0791
     52 H18         0.3175    -5.1194    91.5612 H          1           0.0785
     53 H19         1.9006    -6.5841    90.3374 H          1           0.0737
     54 H20         2.0503    -7.6231    91.7749 H          1           0.0744
     55 H21        -0.3804    -8.1042    91.6802 H          1           0.0696
     56 H22        -0.5301    -7.0651    90.2429 H          1           0.0694
     57 H23         0.1842    -8.9130    89.0338 H          1           0.4014
     58 H24         1.4922   -11.9451    89.8612 H          1           0.1385
     59 H25         2.5210   -11.5131    87.6975 H          1           0.1464
     60 H26         1.7442    -9.1250    86.3152 H          1           0.1264
     61 H27         2.6311    -6.8852    85.8266 H          1           0.1399
     62 H28         4.1924    -9.3050    89.8380 H          1           0.1429
     63 H29         6.1410    -5.5515    94.7950 H          1           0.1375
     64 H30         5.5838    -6.9158    93.7981 H          1           0.1409
     65 H31         6.9114    -9.7376    96.4996 H          1           0.1393
@<TRIPOS>BOND
     1    1    2 1
     2    2   35 ar
     3    2    3 ar
     4    3    4 ar
     5    3   36 1
     6    4    5 ar
     7    4   37 1
     8    5    6 ar
     9    5   38 1
    10    6    7 1
    11    6   35 ar
    12    7    8 am
    13    7   39 1
    14    8    9 2
    15    8   10 1
    16   10   34 1
    17   10   11 1
    18   10   40 1
    19   11   12 1
    20   11   41 1
    21   11   42 1
    22   12   13 1
    23   12   43 1
    24   12   44 1
    25   13   14 1
    26   13   45 1
    27   13   46 1
    28   14   15 1
    29   14   16 1
    30   14   34 1
    31   16   17 1
    32   16   47 1
    33   16   48 1
    34   17   18 1
    35   17   49 1
    36   17   50 1
    37   18   19 1
    38   18   51 1
    39   18   52 1
    40   19   20 1
    41   19   53 1
    42   19   54 1
    43   20   21 1
    44   20   55 1
    45   20   56 1
    46   21   22 am
    47   21   57 1
    48   22   23 2
    49   22   24 1
    50   24   25 2
    51   24   58 1
    52   25   26 1
    53   25   59 1
    54   26   33 ar
    55   26   27 ar
    56   27   28 ar
    57   27   60 1
    58   28   29 ar
    59   28   61 1
    60   29   30 1
    61   29   31 ar
    62   31   32 1
    63   31   33 ar
    64   33   62 1
    65   34   63 1
    66   34   64 1
    67   35   65 1
##########                 Name:              T535619
##########          Protonation:                   12
##########               SMILES:   c1cc(ccc1)c2ncc(cc2)C[NH2+][C@H]3CC[NH+](CC3)C[C@@H]4c5c6n(c(=O)ccc6ccc5F)C4
##########            Long Name:   )BLAHyl]methyl]piperidin-1-ium-4-yl]-[[6-(m-tolyl)-3-pyridyl]methyl]ammonium
##########          FlexRecCode: 1
##########               Number:                    1
##########   Ligand Source File: /raidb/db2/rgc/tcams/tcams-0001418.db2.gz
##########           GlobalRank: 183
##########                 Rank:                    1
##########               Setnum:                  252
##########             Matchnum:                  138
##########                Cloud:                    1
##########        Electrostatic:           -43.717564
##########        Van der Waals:           -34.153465
##########  Ligand Polar Desolv:            16.404053
########## Ligand Apolar Desolv:            -5.103047
##########      Internal Energy:             0.000000
##########      Receptor Energy: 0.0
########## Receptor Desolvation:             0.000000
########## Receptor Hydrophobic:             0.000000
##########         Total Energy: -66.57
##########        Ligand Charge:             2.000000
##########            Arbitrary:    +999.9990
##########     heavy atom count:   36
##########           pose count:    1
##########        Ligand Energy:             0.000000
# num electro vdwattr vdwrepu polsolv apolsol rdesolv rhydroe totalscore fullpol fullapo
#   1    1.10   -1.39    0.22   -0.80   -0.11    0.00    0.00      -0.98   -1.41   -0.20
#   2    0.66   -1.63    0.24   -0.81   -0.22    0.00    0.00      -1.77   -1.49   -0.40
#   3    0.72   -2.27    0.71   -1.13   -0.26    0.00    0.00      -2.22   -2.00   -0.45
#   4    1.67   -2.71    1.32   -1.04   -0.26    0.00    0.00      -1.02   -1.87   -0.47
#   5    1.44   -2.03    0.50   -1.06   -0.24    0.00    0.00      -1.38   -1.96   -0.44
#   6    0.95   -1.54    0.26   -0.40   -0.17    0.00    0.00      -0.89   -0.95   -0.41
#   7    0.45   -1.47    0.22   -0.67   -0.17    0.00    0.00      -1.64   -1.64   -0.43
#   8   -2.87   -1.24    0.10    0.88   -0.28    0.00    0.00      -3.42    2.30   -0.74
#   9    2.07   -1.67    0.25   -2.50   -0.20    0.00    0.00      -2.05   -5.48   -0.44
#  10    0.57   -1.51    0.26   -0.52   -0.19    0.00    0.00      -1.39   -1.28   -0.46
#  11    5.79   -1.00    0.07   -1.95   -0.13    0.00    0.00       2.77   -5.53   -0.37
#  12   -1.59   -0.83    0.10    1.37   -0.15    0.00    0.00      -1.11    3.55   -0.40
#  13   16.11   -0.91    0.22   -7.39    0.16    0.00    0.00       8.19  -27.96    0.60
#  14  -16.03   -0.02    0.00    4.66    0.10    0.00    0.00     -11.30   26.64    0.56
#  15   -8.25   -0.01    0.00    2.52    0.03    0.00    0.00      -5.70   26.31    0.34
#  16   -0.56   -1.40    0.51    1.08   -0.09    0.00    0.00      -0.46    3.10   -0.27
#  17    3.90   -0.92    0.21   -3.08   -0.07    0.00    0.00       0.04   -9.57   -0.22
#  18    0.38   -0.39    0.02   -0.46   -0.08    0.00    0.00      -0.53   -2.14   -0.37
#  19    3.51   -0.51    0.06   -3.73    0.05    0.00    0.00      -0.61  -19.96    0.27
#  20   -2.39   -0.02    0.00    3.30    0.04    0.00    0.00       0.93   20.05    0.26
#  21    0.02   -0.21    0.00    0.05   -0.04    0.00    0.00      -0.18    0.42   -0.30
#  22    0.13   -0.37    0.03   -0.26   -0.04    0.00    0.00      -0.50   -1.28   -0.19
#  23   -0.18   -0.37    0.02    0.49   -0.13    0.00    0.00      -0.18    2.00   -0.54
#  24    0.81   -0.58    0.04   -2.60    0.40    0.00    0.00      -1.93  -11.14    1.71
#  25   -0.36   -0.76    0.18    0.70   -0.14    0.00    0.00      -0.38    3.46   -0.69
#  26    0.18   -0.72    0.20   -0.79   -0.07    0.00    0.00      -1.20   -4.40   -0.41
#  27    0.02   -0.50    0.06    0.15   -0.08    0.00    0.00      -0.35    0.85   -0.47
#  28    0.22   -0.87    0.27   -1.10   -0.11    0.00    0.00      -1.59   -4.68   -0.46
#  29   -0.65   -0.86    0.19    1.78   -0.17    0.00    0.00       0.29    6.65   -0.65
#  30    0.41   -1.21    0.24   -1.66    0.15    0.00    0.00      -2.07   -5.08    0.45
#  31    0.00   -0.79    0.18   -0.16   -0.10    0.00    0.00      -0.86   -0.74   -0.46
#  32    0.28   -1.38    0.41   -1.58   -0.13    0.00    0.00      -2.40   -5.53   -0.46
#  33   -0.31   -1.33    0.35    2.17   -0.10    0.00    0.00       0.79    7.54   -0.33
#  34    0.31   -0.94    0.27   -1.09   -0.13    0.00    0.00      -1.58   -2.98   -0.36
#  35    0.50   -0.89    0.20   -1.11   -0.09    0.00    0.00      -1.40   -5.05   -0.39
#  36    0.46   -0.40    0.03   -0.72   -0.07    0.00    0.00      -0.70   -3.41   -0.33
#  37    5.27   -1.62    0.80   -2.94   -0.08    0.00    0.00       1.42   -8.71   -0.24
#  38   -3.12   -1.12    0.15    1.23   -0.30    0.00    0.00      -3.16    3.87   -0.95
#  39    7.15   -1.43    0.31   -4.74    0.60    0.00    0.00       1.89  -14.32    1.80
#  40   -0.59   -0.69    0.32    0.53   -0.16    0.00    0.00      -0.60    0.95   -0.28
#  41   -0.53   -0.66    0.45    0.29   -0.15    0.00    0.00      -0.59    0.56   -0.28
#  42   -0.89   -0.37    0.08    0.43   -0.11    0.00    0.00      -0.86    1.08   -0.28
#  43   -0.63   -0.61    0.23    0.63   -0.16    0.00    0.00      -0.54    1.11   -0.28
#  44   -2.43   -0.98    1.40    1.00   -0.16    0.00    0.00      -1.17    1.80   -0.28
#  45   -2.52   -0.41    0.05    1.65   -0.11    0.00    0.00      -1.36    3.18   -0.22
#  46   -0.51   -0.26    0.02    0.52   -0.07    0.00    0.00      -0.29    2.12   -0.27
#  47   -1.85   -0.60    0.27    1.22   -0.10    0.00    0.00      -1.05    2.79   -0.22
#  48   -2.92   -0.44    0.11    3.30   -0.11    0.00    0.00      -0.05    8.78   -0.28
#  49   -4.02   -0.23    0.01    2.48   -0.05    0.00    0.00      -1.80   11.23   -0.22
#  50   -6.40   -0.46    0.19    3.84   -0.11    0.00    0.00      -2.94    9.80   -0.28
#  51   -8.56   -0.94    0.79    4.51   -0.12    0.00    0.00      -4.32   10.64   -0.28
#  52   -3.60   -0.23    0.02    2.10   -0.05    0.00    0.00      -1.77    8.82   -0.22
#  53   -2.54   -0.68    0.66    1.89   -0.09    0.00    0.00      -0.76    5.90   -0.28
#  54   -1.66   -0.09    0.00    0.90   -0.02    0.00    0.00      -0.86   11.90   -0.22
#  55   -2.58   -0.11    0.00    0.88   -0.03    0.00    0.00      -1.85    7.66   -0.28
#  56   -0.24   -0.04    0.00    0.51   -0.01    0.00    0.00       0.21   11.90   -0.28
#  57   -0.27   -0.06    0.00    0.35   -0.02    0.00    0.00       0.00    6.22   -0.28
#  58   -1.08   -0.17    0.03    1.25   -0.03    0.00    0.00       0.00    8.75   -0.22
#  59   -0.25   -0.21    0.03    0.56   -0.07    0.00    0.00       0.08    2.34   -0.28
#  60   -0.14   -0.08    0.00    0.32   -0.02    0.00    0.00       0.08    3.99   -0.26
#  61   -0.17   -0.06    0.00    0.24   -0.02    0.00    0.00       0.00    3.73   -0.28
#  62   -0.16   -0.24    0.07    0.24   -0.06    0.00    0.00      -0.16    1.04   -0.28
#  63   -0.19   -0.09    0.00    0.37   -0.03    0.00    0.00       0.07    4.16   -0.28
#  64   -0.22   -0.48    0.35    1.72   -0.08    0.00    0.00       1.28    5.71   -0.28
#  65   -1.71   -0.07    0.00    0.77   -0.01    0.00    0.00      -1.02   12.30   -0.23
#  66   -1.27   -0.09    0.00    0.67   -0.02    0.00    0.00      -0.71    6.57   -0.21
#  67   -4.05   -1.25    2.18    2.21   -0.10    0.00    0.00      -1.01    5.30   -0.25
#  68   -6.10   -0.75    0.72    2.56   -0.09    0.00    0.00      -3.66    8.10   -0.28
#  69   -4.41   -0.26    0.05    2.36   -0.06    0.00    0.00      -2.33   10.57   -0.28

@<TRIPOS>MOLECULE
          T535619        12
   69    74     0     0     0



@<TRIPOS>ATOM
      1 C1          8.3312   -13.1728    96.9989 C.3        1          -0.1215
      2 C2          8.3699   -11.7691    97.5458 C.ar       1          -0.0885
      3 C3          9.1155   -11.4892    98.6771 C.ar       1          -0.0849
      4 C4          9.1552   -10.2034    99.1848 C.ar       1          -0.1169
      5 C5          8.4501    -9.1915    98.5646 C.ar       1          -0.0931
      6 C6          7.6978    -9.4677    97.4247 C.ar       1          -0.0902
      7 C7          7.6660   -10.7642    96.9141 C.ar       1          -0.0680
      8 C8          6.9381    -8.3846    96.7538 C.ar       1           0.2377
      9 C9          5.9537    -7.6931    97.4569 C.ar       1          -0.1650
     10 C10         5.2535    -6.6847    96.8177 C.ar       1          -0.0331
     11 C11         5.5611    -6.4008    95.4946 C.ar       1          -0.2536
     12 C12         4.8244    -5.3107    94.7595 C.3        1           0.0498
     13 N1          4.4473    -5.7898    93.4231 N.4        1          -0.5151
     14 H1          5.2783    -6.0400    92.9086 H          1           0.4383
     15 H2          3.8503    -6.5983    93.5117 H          1           0.4124
     16 C13         3.7292    -4.7272    92.7066 C.3        1           0.0158
     17 C14         2.2695    -4.6941    93.1687 C.3        1          -0.1701
     18 C15         1.5948    -6.0183    92.8044 C.3        1          -0.0251
     19 N2          1.6450    -6.2136    91.3505 N.4        1          -0.3964
     20 H3          1.2065    -5.4293    90.8915 H          1           0.4269
     21 C16         0.9300    -7.4476    90.9986 C.3        1          -0.0070
     22 C17        -0.5755    -7.1764    90.9775 C.3        1          -0.0603
     23 C18        -1.0025    -6.6106    89.6061 C.3        1           0.1165
     24 N3         -1.9579    -7.5859    89.0605 N.am       1          -0.5283
     25 C19        -2.0980    -8.6008    89.9622 C.ar       1           0.1947
     26 C20        -2.9409    -9.6969    89.7487 C.ar       1          -0.1124
     27 C21        -3.6959    -9.7398    88.4966 C.2        1          -0.0195
     28 C22        -3.5283    -8.7106    87.6234 C.2        1          -0.1906
     29 C23        -2.6590    -7.6354    87.9083 C.2        1           0.5471
     30 O1         -2.5398    -6.7330    87.0976 O.2        1          -0.4988
     31 C24        -3.0180   -10.6858    90.7342 C.ar       1          -0.0001
     32 C25        -2.2690   -10.5506    91.8720 C.ar       1          -0.1650
     33 C26        -1.4331    -9.4528    92.0707 C.ar       1           0.1412
     34 F1         -0.7078    -9.3528    93.2061 F          1          -0.1389
     35 C27        -1.3459    -8.4684    91.1075 C.ar       1          -0.2194
     36 C28         3.0413    -6.3180    90.9099 C.3        1          -0.0337
     37 C29         3.7717    -5.0055    91.2013 C.3        1          -0.1672
     38 C30         6.5501    -7.1268    94.8575 C.ar       1           0.1442
     39 N4          7.2051    -8.0786    95.4909 N.ar       1          -0.4754
     40 H4          8.9419   -13.8236    97.6246 H          1           0.0763
     41 H5          7.3024   -13.5331    96.9954 H          1           0.0745
     42 H6          8.7211   -13.1770    95.9810 H          1           0.0700
     43 H7          9.6683   -12.2778    99.1657 H          1           0.1340
     44 H8          9.7386    -9.9905   100.0684 H          1           0.1358
     45 H9          8.4812    -8.1879    98.9623 H          1           0.1280
     46 H10         7.0881   -10.9829    96.0284 H          1           0.1349
     47 H11         5.7400    -7.9407    98.4863 H          1           0.1550
     48 H12         4.4849    -6.1317    97.3370 H          1           0.1481
     49 H13         3.9267    -5.0404    95.3154 H          1           0.1422
     50 H14         5.4692    -4.4371    94.6638 H          1           0.1498
     51 H15         4.1998    -3.7660    92.9132 H          1           0.1751
     52 H16         2.2327    -4.5519    94.2487 H          1           0.1416
     53 H17         1.7500    -3.8730    92.6748 H          1           0.1397
     54 H18         2.1149    -6.8387    93.2989 H          1           0.1247
     55 H19         0.5554    -5.9983    93.1321 H          1           0.1599
     56 H20         1.2522    -7.7859    90.0137 H          1           0.1476
     57 H21         1.1501    -8.2182    91.7374 H          1           0.1462
     58 H22        -0.8488    -6.4882    91.7772 H          1           0.1257
     59 H23        -1.4835    -5.6406    89.7313 H          1           0.1150
     60 H24        -0.1374    -6.5214    88.9488 H          1           0.1066
     61 H25        -4.3623   -10.5597    88.2734 H          1           0.1647
     62 H26        -4.0732    -8.7159    86.6909 H          1           0.1714
     63 H27        -3.6597   -11.5440    90.5998 H          1           0.1646
     64 H28        -2.3272   -11.3132    92.6347 H          1           0.1570
     65 H29         3.5308    -7.1321    91.4449 H          1           0.1273
     66 H30         3.0698    -6.5193    89.8390 H          1           0.1568
     67 H31         3.2833    -4.1907    90.6667 H          1           0.1404
     68 H32         4.8087    -5.0857    90.8752 H          1           0.1414
     69 H33         6.7919    -6.9083    93.8278 H          1           0.1590
@<TRIPOS>BOND
     1    1    2 1
     2    1   40 1
     3    1   41 1
     4    1   42 1
     5    2    7 ar
     6    2    3 ar
     7    3    4 ar
     8    3   43 1
     9    4    5 ar
    10    4   44 1
    11    5    6 ar
    12    5   45 1
    13    6    7 ar
    14    6    8 1
    15    7   46 1
    16    8   39 ar
    17    8    9 ar
    18    9   10 ar
    19    9   47 1
    20   10   11 ar
    21   10   48 1
    22   11   12 1
    23   11   38 ar
    24   12   13 1
    25   12   49 1
    26   12   50 1
    27   13   14 1
    28   13   15 1
    29   13   16 1
    30   16   37 1
    31   16   17 1
    32   16   51 1
    33   17   18 1
    34   17   52 1
    35   17   53 1
    36   18   19 1
    37   18   54 1
    38   18   55 1
    39   19   20 1
    40   19   21 1
    41   19   36 1
    42   21   22 1
    43   21   56 1
    44   21   57 1
    45   22   35 1
    46   22   23 1
    47   22   58 1
    48   23   24 1
    49   23   59 1
    50   23   60 1
    51   24   29 am
    52   24   25 1
    53   25   35 ar
    54   25   26 ar
    55   26   27 1
    56   26   31 ar
    57   27   28 2
    58   27   61 1
    59   28   29 1
    60   28   62 1
    61   29   30 2
    62   31   32 ar
    63   31   63 1
    64   32   33 ar
    65   32   64 1
    66   33   34 1
    67   33   35 ar
    68   36   37 1
    69   36   65 1
    70   36   66 1
    71   37   67 1
    72   37   68 1
    73   38   39 ar
    74   38   69 1
##########                 Name:              T526257
##########          Protonation:                   99
##########               SMILES:   c1cc(c(cc1/C=C/C(=O)NCCCCC[NH+]2CCC[C@H](C2)C(=O)Nc3ccc(c(c3)Cl)F)Cl)Cl
##########            Long Name:   -(3,4-dichlorophenyl)prop-2-enoyl]amino]pentyl]piperidin-1-ium-3-carboxamide
##########          FlexRecCode: 1
##########               Number:                   16
##########   Ligand Source File: /raidb/db2/rgc/tcams/tcams-0000208.db2.gz
##########           GlobalRank: 185
##########                 Rank:                    1
##########               Setnum:                  398
##########             Matchnum:                 4055
##########                Cloud:                    1
##########        Electrostatic:           -49.230717
##########        Van der Waals:           -25.090574
##########  Ligand Polar Desolv:            12.539406
########## Ligand Apolar Desolv:            -4.776373
##########      Internal Energy:             0.000000
##########      Receptor Energy: 0.0
########## Receptor Desolvation:             0.000000
########## Receptor Hydrophobic:             0.000000
##########         Total Energy: -66.56
##########        Ligand Charge:             1.000000
##########            Arbitrary:    +999.9990
##########     heavy atom count:   35
##########           pose count:    1
##########        Ligand Energy:             0.000000
# num electro vdwattr vdwrepu polsolv apolsol rdesolv rhydroe totalscore fullpol fullapo
#   1    1.01   -1.49    0.59   -0.22   -0.27    0.00    0.00      -0.40   -0.38   -0.47
#   2   -1.28   -2.24    1.06   -0.01   -0.18    0.00    0.00      -2.65   -0.01   -0.34
#   3    2.23   -2.56    0.73   -0.59   -0.27    0.00    0.00      -0.47   -1.04   -0.47
#   4    1.57   -2.22    0.40   -0.59   -0.23    0.00    0.00      -1.08   -1.04   -0.40
#   5   -1.95   -1.55    0.20    1.09   -0.32    0.00    0.00      -2.52    2.33   -0.68
#   6   11.70   -1.54    0.22   -5.28    0.69    0.00    0.00       5.79  -12.47    1.63
#   7  -10.80   -1.39    0.27    3.84   -0.21    0.00    0.00      -8.28   10.65   -0.58
#   8    7.93   -1.33    0.33   -2.78    0.10    0.00    0.00       4.24   -9.16    0.32
#   9    4.22   -1.04    0.27   -1.08   -0.07    0.00    0.00       2.30   -2.73   -0.17
#  10    4.00   -1.28    0.35   -1.79   -0.10    0.00    0.00       1.17   -3.81   -0.22
#  11    5.44   -1.71    0.36   -2.06   -0.13    0.00    0.00       1.91   -4.02   -0.25
#  12    0.60   -1.24    0.30   -0.15   -0.15    0.00    0.00      -0.64   -0.36   -0.37
#  13   17.67   -3.26    7.92   -3.88    0.09    0.00    0.00      18.54  -11.75    0.27
#  14  -33.38   -0.76    2.21    6.52    0.20    0.00    0.00     -25.21   17.19    0.54
#  15    0.34   -1.02    0.34    0.05   -0.10    0.00    0.00      -0.40    0.17   -0.35
#  16    4.72   -1.16    0.52   -1.14   -0.06    0.00    0.00       2.88   -4.09   -0.21
#  17    1.43   -0.44    0.03   -0.65   -0.05    0.00    0.00       0.32   -2.91   -0.22
#  18    1.11   -0.34    0.02   -0.42   -0.04    0.00    0.00       0.33   -2.33   -0.22
#  19   -1.30   -0.17    0.00    0.14   -0.04    0.00    0.00      -1.37    1.36   -0.42
#  20    4.49   -0.13    0.00   -0.50    0.13    0.00    0.00       4.00   -8.77    2.33
#  21   -2.88   -0.15    0.00    0.27   -0.04    0.00    0.00      -2.80    4.05   -0.65
#  22    4.33   -0.19    0.00   -0.13    0.04    0.00    0.00       4.05   -1.35    0.39
#  23    0.11   -0.26    0.03   -0.17   -0.04    0.00    0.00      -0.33   -1.88   -0.43
#  24    0.01   -0.61    0.18   -0.04   -0.06    0.00    0.00      -0.52   -0.32   -0.44
#  25    0.01   -1.47    1.42   -0.09   -0.08    0.00    0.00      -0.21   -0.43   -0.41
#  26   -0.02   -1.69    2.38   -0.13   -0.08    0.00    0.00       0.45   -0.66   -0.43
#  27    0.00   -1.25    0.58   -0.08   -0.07    0.00    0.00      -0.83   -0.33   -0.30
#  28    0.01   -1.44    0.33   -0.07   -0.21    0.00    0.00      -1.38   -0.30   -0.95
#  29    0.00   -1.45    0.41   -0.10   -0.10    0.00    0.00      -1.23   -0.29   -0.30
#  30    0.01   -3.13    1.14   -0.10   -0.39    0.00    0.00      -2.47   -0.25   -0.95
#  31    0.38   -2.35    1.13   -0.23   -0.15    0.00    0.00      -1.22   -0.70   -0.46
#  32    0.35   -1.71    0.64   -0.18   -0.12    0.00    0.00      -1.03   -0.64   -0.45
#  33   -0.31   -0.82    0.32    0.17   -0.07    0.00    0.00      -0.71    0.65   -0.27
#  34    0.96   -1.36    0.16   -0.44   -0.17    0.00    0.00      -0.85   -1.19   -0.45
#  35    0.47   -1.70    0.46   -0.26   -0.13    0.00    0.00      -1.16   -0.57   -0.30
#  36    0.18   -3.47    0.78   -0.23   -0.50    0.00    0.00      -3.23   -0.44   -0.97
#  37   -3.58   -0.91    0.63    0.82   -0.16    0.00    0.00      -3.20    1.45   -0.28
#  38   -3.16   -0.62    0.15    1.17   -0.12    0.00    0.00      -2.58    2.15   -0.22
#  39   -7.58   -0.04    0.00    3.44    0.18    0.00    0.00      -3.99   10.30    0.55
#  40   -5.64   -0.71    0.73    2.76   -0.12    0.00    0.00      -2.99    6.28   -0.28
#  41   -2.16   -0.24    0.02    0.32   -0.06    0.00    0.00      -2.12    1.43   -0.28
#  42   -2.70   -1.10    2.23    1.04   -0.11    0.00    0.00      -0.64    2.43   -0.26
#  43   -4.08   -0.90    0.52    1.29   -0.14    0.00    0.00      -3.30    2.57   -0.28
#  44   -4.38   -0.81    0.36    2.27   -0.16    0.00    0.00      -2.72    4.10   -0.28
#  45   -3.57   -0.16    0.01    0.68   -0.05    0.00    0.00      -3.10    4.06   -0.28
#  46   -5.20   -0.70    0.56    2.33   -0.09    0.00    0.00      -3.11    5.84   -0.22
#  47   -2.58   -0.10    0.00    0.48   -0.03    0.00    0.00      -2.22    4.75   -0.28
#  48   -3.97   -0.45    0.15    1.24   -0.08    0.00    0.00      -3.11    4.20   -0.28
#  49   -4.35   -1.32    2.65    1.20   -0.07    0.00    0.00      -1.90    3.59   -0.22
#  50   -2.44   -0.18    0.03    0.52   -0.04    0.00    0.00      -2.11    3.65   -0.28
#  51   -0.67   -0.05    0.00    0.07   -0.01    0.00    0.00      -0.67    1.39   -0.28
#  52   -0.37   -0.22    0.03    0.31   -0.06    0.00    0.00      -0.32    1.37   -0.28
#  53   -0.24   -0.07    0.00    0.14   -0.02    0.00    0.00      -0.18    2.04   -0.28
#  54   -0.91   -0.20    0.03    0.35   -0.05    0.00    0.00      -0.78    2.00   -0.28
#  55   -0.62   -0.04    0.00    0.02   -0.01    0.00    0.00      -0.66    0.34   -0.28
#  56   -1.21   -0.07    0.00    0.02   -0.02    0.00    0.00      -1.27    0.34   -0.28
#  57   -1.44    0.00    0.00    0.20    0.02    0.00    0.00      -1.23    7.28    0.56
#  58   -0.05   -0.04    0.00    0.12   -0.01    0.00    0.00       0.03    2.69   -0.21
#  59   -0.55   -0.08    0.01    0.06   -0.02    0.00    0.00      -0.59    0.82   -0.26
#  60    0.00   -0.17    0.07    0.25   -0.02    0.00    0.00       0.14    2.26   -0.21
#  61   -1.58   -0.98    1.39    0.50   -0.11    0.00    0.00      -0.79    1.32   -0.28
#  62   -1.85   -0.42    0.26    0.49   -0.07    0.00    0.00      -1.60    1.86   -0.28
#  63   -4.08   -0.20    0.04    0.77   -0.05    0.00    0.00      -3.51    4.50   -0.28
#  64   -2.69   -0.11    0.00    0.37   -0.03    0.00    0.00      -2.45    3.38   -0.28
#  65   -0.94   -0.22    0.02    0.62   -0.06    0.00    0.00      -0.58    2.83   -0.28

@<TRIPOS>MOLECULE
          T526257        99
   65    67     0     0     0



@<TRIPOS>ATOM
      1 F1          9.3019   -11.5263    99.2727 F          1          -0.1183
      2 C1          8.7818   -10.4432    98.6548 C.ar       1           0.1090
      3 C2          9.0498    -9.1747    99.1409 C.ar       1          -0.1202
      4 C3          8.5191    -8.0661    98.5109 C.ar       1          -0.0849
      5 C4          7.7161    -8.2236    97.3890 C.ar       1           0.1334
      6 N1          7.1777    -7.1006    96.7490 N.am       1          -0.6588
      7 C5          6.9399    -7.1303    95.4226 C.2        1           0.5254
      8 O1          7.1922    -8.1298    94.7835 O.2        1          -0.5064
      9 C6          6.3605    -5.9216    94.7338 C.3        1          -0.1290
     10 C7          5.4723    -5.1508    95.7146 C.3        1          -0.1339
     11 C8          4.8269    -3.9698    94.9839 C.3        1          -0.1418
     12 C9          4.0426    -4.4905    93.7776 C.3        1          -0.0161
     13 N2          4.9517    -5.1946    92.8652 N.4        1          -0.3821
     14 H1          5.6974    -4.5734    92.5893 H          1           0.4224
     15 C10         4.2096    -5.6262    91.6733 C.3        1          -0.0106
     16 C11         5.1915    -5.8980    90.5318 C.3        1          -0.1473
     17 C12         4.4185    -6.3475    89.2903 C.3        1          -0.1156
     18 C13         5.4004    -6.6192    88.1489 C.3        1          -0.1325
     19 C14         6.3773    -7.7198    88.5678 C.3        1           0.1174
     20 N3          5.6323    -8.9437    88.8729 N.am       1          -0.7313
     21 C15         6.1070    -9.8109    89.7889 C.2        1           0.5497
     22 O2          7.1545    -9.5771    90.3626 O.2        1          -0.5376
     23 C16         5.3626   -11.0339    90.0940 C.2        1          -0.2151
     24 C17         5.8375   -11.9015    91.0105 C.2        1          -0.0088
     25 C18         5.0891   -13.1309    91.3171 C.ar       1          -0.0650
     26 C19         3.7287   -13.2215    91.0050 C.ar       1          -0.0829
     27 C20         3.0338   -14.3772    91.2949 C.ar       1          -0.0343
     28 Cl1         1.3454   -14.4929    90.9082 Cl         1          -0.0403
     29 C21         3.6814   -15.4470    91.8943 C.ar       1          -0.0206
     30 Cl2         2.7996   -16.8981    92.2559 Cl         1          -0.0366
     31 C22         5.0283   -15.3635    92.2053 C.ar       1          -0.0982
     32 C23         5.7362   -14.2160    91.9166 C.ar       1          -0.0751
     33 C24         5.5194    -6.3700    93.5367 C.3        1           0.0099
     34 C25         7.4480    -9.4959    96.9024 C.ar       1          -0.1031
     35 C26         7.9855   -10.6028    97.5322 C.ar       1          -0.0568
     36 Cl3         7.6569   -12.1940    96.9205 Cl         1          -0.0301
     37 H2          9.6739    -9.0521   100.0137 H          1           0.1545
     38 H3          8.7283    -7.0770    98.8909 H          1           0.1491
     39 H4          6.9758    -6.3014    97.2601 H          1           0.4172
     40 H5          7.1688    -5.2765    94.3896 H          1           0.1269
     41 H6          4.6945    -5.8110    96.0984 H          1           0.0925
     42 H7          6.0783    -4.7805    96.5416 H          1           0.1006
     43 H8          4.1499    -3.4489    95.6610 H          1           0.1198
     44 H9          5.6029    -3.2835    94.6450 H          1           0.0927
     45 H10         3.2667    -5.1764    94.1177 H          1           0.1317
     46 H11         3.5817    -3.6523    93.2551 H          1           0.1362
     47 H12         3.6554    -6.5369    91.9003 H          1           0.1342
     48 H13         3.5135    -4.8423    91.3751 H          1           0.1326
     49 H14         5.7457    -4.9872    90.3048 H          1           0.0884
     50 H15         5.8876    -6.6820    90.8301 H          1           0.0885
     51 H16         3.8644    -7.2583    89.5175 H          1           0.0798
     52 H17         3.7225    -5.5635    88.9920 H          1           0.0794
     53 H18         4.8497    -6.9396    87.2645 H          1           0.0744
     54 H19         5.9546    -5.7086    87.9217 H          1           0.0748
     55 H20         7.0768    -7.9134    87.7546 H          1           0.0705
     56 H21         6.9280    -7.3995    89.4522 H          1           0.0704
     57 H22         4.7974    -9.1301    88.4156 H          1           0.4026
     58 H23         4.4329   -11.2412    89.5850 H          1           0.1314
     59 H24         6.7673   -11.6941    91.5195 H          1           0.1444
     60 H25         3.2236   -12.3886    90.5386 H          1           0.1459
     61 H26         5.5264   -16.2006    92.6716 H          1           0.1505
     62 H27         6.7876   -14.1542    92.1560 H          1           0.1475
     63 H28         6.1487    -6.9192    92.8365 H          1           0.1410
     64 H29         4.7121    -7.0158    93.8820 H          1           0.1400
     65 H30         6.8237    -9.6204    96.0299 H          1           0.1490
@<TRIPOS>BOND
     1    1    2 1
     2    2   35 ar
     3    2    3 ar
     4    3    4 ar
     5    3   37 1
     6    4    5 ar
     7    4   38 1
     8    5    6 1
     9    5   34 ar
    10    6    7 am
    11    6   39 1
    12    7    8 2
    13    7    9 1
    14    9   33 1
    15    9   10 1
    16    9   40 1
    17   10   11 1
    18   10   41 1
    19   10   42 1
    20   11   12 1
    21   11   43 1
    22   11   44 1
    23   12   13 1
    24   12   45 1
    25   12   46 1
    26   13   14 1
    27   13   15 1
    28   13   33 1
    29   15   16 1
    30   15   47 1
    31   15   48 1
    32   16   17 1
    33   16   49 1
    34   16   50 1
    35   17   18 1
    36   17   51 1
    37   17   52 1
    38   18   19 1
    39   18   53 1
    40   18   54 1
    41   19   20 1
    42   19   55 1
    43   19   56 1
    44   20   21 am
    45   20   57 1
    46   21   22 2
    47   21   23 1
    48   23   24 2
    49   23   58 1
    50   24   25 1
    51   24   59 1
    52   25   32 ar
    53   25   26 ar
    54   26   27 ar
    55   26   60 1
    56   27   28 1
    57   27   29 ar
    58   29   30 1
    59   29   31 ar
    60   31   32 ar
    61   31   61 1
    62   32   62 1
    63   33   63 1
    64   33   64 1
    65   34   35 ar
    66   34   65 1
    67   35   36 1
##########                 Name:              T527895
##########          Protonation:                   99
##########               SMILES:   C[C@H](Cc1ccc(cc1)Sc2ccccc2)[NH2+]C[C@@H](c3cccc(c3)C(F)(F)F)O
##########            Long Name:   methyl)phenyl]ethyl]-[(1R)-1-methyl-2-(4-phenylsulfanylphenyl)ethyl]ammonium
##########          FlexRecCode: 1
##########               Number:                  247
##########   Ligand Source File: /raidb/db2/rgc/tcams/tcams-0000372.db2.gz
##########           GlobalRank: 185
##########                 Rank:                    1
##########               Setnum:                    2
##########             Matchnum:                 2027
##########                Cloud:                    1
##########        Electrostatic:           -44.077587
##########        Van der Waals:           -25.034145
##########  Ligand Polar Desolv:             6.866498
########## Ligand Apolar Desolv:            -4.310639
##########      Internal Energy:             0.000000
##########      Receptor Energy: 0.0
########## Receptor Desolvation:             0.000000
########## Receptor Hydrophobic:             0.000000
##########         Total Energy: -66.56
##########        Ligand Charge:             1.000000
##########            Arbitrary:    +999.9990
##########     heavy atom count:   30
##########           pose count:    1
##########        Ligand Energy:             0.000000
# num electro vdwattr vdwrepu polsolv apolsol rdesolv rhydroe totalscore fullpol fullapo
#   1    4.47   -1.21    0.42   -1.84   -0.06    0.00    0.00       1.78   -5.84   -0.19
#   2   -0.90   -0.85    0.24    0.58   -0.06    0.00    0.00      -0.99    2.21   -0.24
#   3    3.73   -1.32    0.59   -1.02   -0.08    0.00    0.00       1.91   -2.75   -0.21
#   4    4.10   -1.03    0.10   -0.59   -0.11    0.00    0.00       2.47   -1.72   -0.33
#   5    2.64   -1.42    0.27   -0.69   -0.18    0.00    0.00       0.62   -1.70   -0.45
#   6    1.96   -1.35    0.22   -0.73   -0.19    0.00    0.00      -0.09   -1.76   -0.46
#   7    1.26   -1.41    0.17   -0.54   -0.12    0.00    0.00      -0.63   -1.33   -0.29
#   8   -0.19   -5.17    4.01   -0.59   -0.40    0.00    0.00      -2.34   -1.14   -0.78
#   9    2.10   -1.77    0.31   -0.48   -0.09    0.00    0.00       0.07   -0.96   -0.18
#  10    0.63   -1.34    0.15   -0.28   -0.17    0.00    0.00      -1.01   -0.75   -0.45
#  11    1.38   -1.76    0.58   -0.45   -0.18    0.00    0.00      -0.42   -1.18   -0.47
#  12    1.09   -2.59    1.44   -0.47   -0.22    0.00    0.00      -0.76   -1.00   -0.47
#  13    2.29   -2.78    1.14   -0.71   -0.26    0.00    0.00      -0.33   -1.28   -0.47
#  14    1.26   -2.29    0.38   -0.41   -0.26    0.00    0.00      -1.32   -0.71   -0.45
#  15    1.71   -1.33    0.13   -0.82   -0.17    0.00    0.00      -0.47   -2.09   -0.44
#  16    2.43   -0.85    0.03   -0.66   -0.12    0.00    0.00       0.82   -2.06   -0.38
#  17   20.17   -2.48    4.29   -4.72    0.17    0.00    0.00      17.44  -16.86    0.62
#  18  -23.29   -0.15    0.04    5.12    0.16    0.00    0.00     -18.12   16.73    0.53
#  19  -18.82   -0.05    0.01    3.47    0.10    0.00    0.00     -15.30   14.60    0.42
#  20    1.02   -0.38    0.04   -0.16   -0.06    0.00    0.00       0.44   -0.92   -0.36
#  21   -2.77   -0.39    0.03    0.82   -0.03    0.00    0.00      -2.33    4.11   -0.15
#  22   13.78   -1.48    0.53   -4.49    0.46    0.00    0.00       8.80  -15.66    1.61
#  23    3.19   -0.76    0.08   -0.50   -0.07    0.00    0.00       1.94   -2.28   -0.34
#  24    2.21   -1.93    1.06   -0.40   -0.14    0.00    0.00       0.80   -1.23   -0.44
#  25    3.46   -1.86    0.56   -0.85   -0.18    0.00    0.00       1.13   -2.17   -0.47
#  26    1.29   -1.33    0.18   -0.54   -0.17    0.00    0.00      -0.57   -1.42   -0.44
#  27    1.93   -0.83    0.07   -0.66   -0.10    0.00    0.00       0.42   -2.53   -0.37
#  28    0.72   -0.48    0.02   -0.22   -0.08    0.00    0.00      -0.04   -1.22   -0.44
#  29   -2.05   -0.73    0.15    0.91   -0.02    0.00    0.00      -1.74    3.51   -0.07
#  30    0.82   -1.63    1.36   -0.40   -0.17    0.00    0.00      -0.02   -1.04   -0.44
#  31    0.58   -0.83    0.51   -0.24   -0.09    0.00    0.00      -0.08   -1.22   -0.48
#  32    0.54   -0.49    0.05   -0.35   -0.12    0.00    0.00      -0.38   -1.36   -0.48
#  33   -1.21   -0.16    0.01    0.58   -0.05    0.00    0.00      -0.83    3.18   -0.28
#  34   -1.29   -0.37    0.20    0.76   -0.05    0.00    0.00      -0.76    3.31   -0.21
#  35   -4.34   -1.08    1.28    0.84   -0.12    0.00    0.00      -3.42    1.98   -0.28
#  36   -2.67   -0.09    0.00    0.43   -0.02    0.00    0.00      -2.35    5.02   -0.28
#  37   -5.79   -1.55    4.86    1.69   -0.11    0.00    0.00      -0.89    4.18   -0.28
#  38   -3.85   -0.30    0.05    0.86   -0.08    0.00    0.00      -3.32    3.11   -0.28
#  39   -6.02   -0.65    0.77    1.27   -0.11    0.00    0.00      -4.73    3.36   -0.28
#  40   -2.91   -0.33    0.05    0.29   -0.09    0.00    0.00      -2.99    0.90   -0.28
#  41   -0.77   -0.24    0.02    0.19   -0.07    0.00    0.00      -0.86    0.82   -0.28
#  42   -1.28   -0.31    0.11    0.32   -0.06    0.00    0.00      -1.23    1.44   -0.28
#  43   -1.65   -0.54    0.20    0.71   -0.11    0.00    0.00      -1.40    1.79   -0.28
#  44   -2.68   -0.76    0.41    1.08   -0.15    0.00    0.00      -2.09    2.02   -0.28
#  45   -2.96   -0.67    0.16    0.90   -0.16    0.00    0.00      -2.74    1.53   -0.28
#  46   -1.49   -0.41    0.09    0.43   -0.08    0.00    0.00      -1.45    1.20   -0.22
#  47   -2.50   -0.13    0.00    0.62   -0.03    0.00    0.00      -2.04    5.40   -0.28
#  48   -2.06   -0.06    0.00    0.32   -0.02    0.00    0.00      -1.82    5.36   -0.28
#  49   -2.27   -0.07    0.00    0.44   -0.02    0.00    0.00      -1.91    6.45   -0.23
#  50   -1.68   -0.05    0.00    0.19   -0.01    0.00    0.00      -1.55    3.99   -0.28
#  51  -14.64   -0.06    0.00    4.50    0.35    0.00    0.00      -9.84   12.89    1.00
#  52   -4.15   -0.74    1.08    1.85   -0.07    0.00    0.00      -2.03    5.71   -0.23
#  53   -5.26   -0.55    0.20    1.09   -0.12    0.00    0.00      -4.64    2.57   -0.28
#  54   -4.15   -0.33    0.04    0.30   -0.08    0.00    0.00      -4.22    0.88   -0.25
#  55   -1.18   -0.05    0.00    0.13   -0.01    0.00    0.00      -1.11    2.99   -0.28

@<TRIPOS>MOLECULE
          T527895        99
   55    57     0     0     0



@<TRIPOS>ATOM
      1 C1          3.4405    -5.2168    91.0077 C.3        1          -0.1839
      2 C2          4.2729    -5.8228    92.1395 C.3        1           0.0292
      3 C3          4.2665    -4.8753    93.3409 C.3        1          -0.0960
      4 C4          4.6402    -5.6392    94.5851 C.ar       1          -0.1392
      5 C5          5.9673    -5.7368    94.9621 C.ar       1          -0.0830
      6 C6          6.3134    -6.4354    96.1017 C.ar       1          -0.0908
      7 C7          5.3264    -7.0409    96.8702 C.ar       1          -0.0830
      8 S1          5.7633    -7.9330    98.3255 S.3        1           0.0163
      9 C8          7.3758    -8.5524    97.9777 C.ar       1          -0.1560
     10 C9          7.5777    -9.4000    96.8951 C.ar       1          -0.0630
     11 C10         8.8428    -9.8830    96.6253 C.ar       1          -0.1254
     12 C11         9.9082    -9.5245    97.4309 C.ar       1          -0.0817
     13 C12         9.7110    -8.6812    98.5093 C.ar       1          -0.1281
     14 C13         8.4496    -8.1900    98.7820 C.ar       1          -0.0668
     15 C14         3.9940    -6.9407    96.4883 C.ar       1          -0.1167
     16 C15         3.6548    -6.2360    95.3503 C.ar       1          -0.1198
     17 N1          5.6540    -6.0211    91.6798 N.4        1          -0.5053
     18 H1          5.9370    -5.2336    91.1158 H          1           0.4283
     19 H2          6.2660    -6.1004    92.4780 H          1           0.4270
     20 C16         5.7316    -7.2501    90.8789 C.3        1          -0.0479
     21 C17         7.1701    -7.4566    90.3999 C.3        1           0.1364
     22 O1          8.0760    -7.1100    91.4493 O.3        1          -0.5439
     23 C18         7.4310    -6.5811    89.2013 C.ar       1          -0.1421
     24 C19         8.4290    -5.6256    89.2474 C.ar       1          -0.0748
     25 C20         8.6683    -4.8228    88.1481 C.ar       1          -0.1082
     26 C21         7.9099    -4.9756    87.0022 C.ar       1          -0.0525
     27 C22         6.9129    -5.9314    86.9559 C.ar       1          -0.1722
     28 C23         6.6763    -6.7374    88.0539 C.ar       1          -0.0522
     29 C24         6.0858    -6.0977    85.7071 C.3        1           0.5064
     30 F1          6.5109    -5.1797    84.7407 F          1          -0.1707
     31 F2          6.2405    -7.3981    85.2150 F          1          -0.1719
     32 F3          4.7384    -5.8696    86.0063 F          1          -0.1740
     33 H3          3.4452    -5.8918    90.1520 H          1           0.0842
     34 H4          2.4158    -5.0698    91.3490 H          1           0.0817
     35 H5          3.8676    -4.2574    90.7161 H          1           0.1093
     36 H6          3.8457    -6.7822    92.4312 H          1           0.1414
     37 H7          4.9872    -4.0744    93.1759 H          1           0.0978
     38 H8          3.2706    -4.4487    93.4619 H          1           0.1223
     39 H9          6.7339    -5.2662    94.3643 H          1           0.1348
     40 H10         7.3499    -6.5114    96.3953 H          1           0.1371
     41 H11         6.7462    -9.6808    96.2658 H          1           0.1345
     42 H12         9.0005   -10.5422    95.7843 H          1           0.1343
     43 H13        10.8965    -9.9041    97.2177 H          1           0.1327
     44 H14        10.5452    -8.4032    99.1363 H          1           0.1326
     45 H15         8.2971    -7.5280    99.6216 H          1           0.1312
     46 H16         3.2243    -7.4104    97.0828 H          1           0.1305
     47 H17         2.6191    -6.1540    95.0553 H          1           0.1233
     48 H18         5.4257    -8.1007    91.4880 H          1           0.1456
     49 H19         5.0704    -7.1642    90.0166 H          1           0.1411
     50 H20         7.3149    -8.5015    90.1252 H          1           0.1337
     51 H21         8.0026    -6.1922    91.7449 H          1           0.3885
     52 H22         9.0215    -5.5063    90.1425 H          1           0.1340
     53 H23         9.4476    -4.0758    88.1843 H          1           0.1464
     54 H24         8.0965    -4.3478    86.1436 H          1           0.1489
     55 H25         5.8996    -7.4870    88.0165 H          1           0.1393
@<TRIPOS>BOND
     1    1    2 1
     2    1   33 1
     3    1   34 1
     4    1   35 1
     5    2    3 1
     6    2   17 1
     7    2   36 1
     8    3    4 1
     9    3   37 1
    10    3   38 1
    11    4   16 ar
    12    4    5 ar
    13    5    6 ar
    14    5   39 1
    15    6    7 ar
    16    6   40 1
    17    7    8 1
    18    7   15 ar
    19    8    9 1
    20    9   14 ar
    21    9   10 ar
    22   10   11 ar
    23   10   41 1
    24   11   12 ar
    25   11   42 1
    26   12   13 ar
    27   12   43 1
    28   13   14 ar
    29   13   44 1
    30   14   45 1
    31   15   16 ar
    32   15   46 1
    33   16   47 1
    34   17   18 1
    35   17   19 1
    36   17   20 1
    37   20   21 1
    38   20   48 1
    39   20   49 1
    40   21   22 1
    41   21   23 1
    42   21   50 1
    43   22   51 1
    44   23   28 ar
    45   23   24 ar
    46   24   25 ar
    47   24   52 1
    48   25   26 ar
    49   25   53 1
    50   26   27 ar
    51   26   54 1
    52   27   28 ar
    53   27   29 1
    54   28   55 1
    55   29   30 1
    56   29   31 1
    57   29   32 1
##########                 Name:              T525329
##########          Protonation:                   38
##########               SMILES:   c1cc(cc(c1)C(F)(F)F)[C@H](CNc2cc[nH+]/c(=N\c3ccc(cc3)Cl)/[nH]2)O
##########            Long Name:   yl)imino-1H-pyrimidin-3-ium-6-yl]amino]-1-[3-(trifluoromethyl)phenyl]ethanol
##########          FlexRecCode: 1
##########               Number:                  205
##########   Ligand Source File: /raidb/db2/rgc/tcams/tcams-0000047.db2.gz
##########           GlobalRank: 186
##########                 Rank:                    1
##########               Setnum:                   93
##########             Matchnum:                 1976
##########                Cloud:                    1
##########        Electrostatic:           -38.915638
##########        Van der Waals:           -29.224428
##########  Ligand Polar Desolv:             6.497396
########## Ligand Apolar Desolv:            -4.899931
##########      Internal Energy:             0.000000
##########      Receptor Energy: 0.0
########## Receptor Desolvation:             0.000000
########## Receptor Hydrophobic:             0.000000
##########         Total Energy: -66.54
##########        Ligand Charge:             1.000000
##########            Arbitrary:    +999.9990
##########     heavy atom count:   28
##########           pose count:    1
##########        Ligand Energy:             0.000000
# num electro vdwattr vdwrepu polsolv apolsol rdesolv rhydroe totalscore fullpol fullapo
#   1   10.60   -1.39    0.50   -3.59    0.48    0.00    0.00       6.60  -12.39    1.66
#   2   -3.04   -0.88    0.16    1.27   -0.05    0.00    0.00      -2.54    3.65   -0.14
#   3   -0.72   -0.56    0.03    0.41   -0.11    0.00    0.00      -0.96    1.28   -0.36
#   4   17.19   -0.85    0.06   -4.98    0.45    0.00    0.00      11.88  -18.09    1.65
#   5  -13.17   -0.75    0.03    4.45   -0.57    0.00    0.00     -10.02   15.84   -2.04
#   6    6.17   -0.86    0.04   -3.08   -0.16    0.00    0.00       2.11   -9.15   -0.46
#   7   -7.03   -1.10    0.12    3.42   -0.38    0.00    0.00      -4.97    8.75   -0.97
#   8   13.92   -0.97    0.06   -5.25    0.32    0.00    0.00       8.07  -15.50    0.93
#   9  -11.84   -0.02    0.00    2.74    0.10    0.00    0.00      -9.02   11.37    0.41
#  10  -11.91   -1.18    0.17    4.56   -1.48    0.00    0.00      -9.84   14.25   -4.64
#  11   15.75   -1.08    0.11   -4.82    0.33    0.00    0.00      10.29  -15.22    1.05
#  12    7.04   -3.50    4.05   -4.00    0.75    0.00    0.00       4.33  -10.97    2.05
#  13   -1.35   -2.24    1.06    0.90   -0.25    0.00    0.00      -1.87    2.10   -0.58
#  14    2.47   -1.43    0.26   -0.89   -0.14    0.00    0.00       0.27   -2.39   -0.37
#  15    1.82   -2.44    1.61   -0.49   -0.20    0.00    0.00       0.30   -1.10   -0.46
#  16    0.80   -2.15    0.49   -0.58   -0.18    0.00    0.00      -1.62   -0.95   -0.30
#  17    1.05   -6.86    5.59   -0.59   -0.65    0.00    0.00      -1.46   -0.91   -0.99
#  18    2.00   -2.57    0.47   -0.66   -0.28    0.00    0.00      -1.05   -1.07   -0.46
#  19    1.98   -3.37    1.49   -0.87   -0.25    0.00    0.00      -1.02   -1.63   -0.47
#  20    2.01   -1.48    0.28   -0.74   -0.13    0.00    0.00      -0.05   -2.01   -0.34
#  21    0.51   -1.26    0.17   -0.34   -0.14    0.00    0.00      -1.06   -1.01   -0.42
#  22    1.50   -1.37    0.18   -0.85   -0.15    0.00    0.00      -0.70   -2.12   -0.38
#  23    0.69   -1.96    0.67   -0.56   -0.21    0.00    0.00      -1.37   -1.15   -0.44
#  24    1.91   -2.03    0.31   -1.01   -0.26    0.00    0.00      -1.08   -1.81   -0.47
#  25    1.27   -1.89    0.36   -0.56   -0.22    0.00    0.00      -1.05   -1.13   -0.44
#  26   -3.56   -0.93    0.08    1.54   -0.04    0.00    0.00      -2.91    3.04   -0.07
#  27    1.12   -0.73    0.07   -0.44   -0.20    0.00    0.00      -0.19   -1.05   -0.48
#  28    1.49   -0.82    0.06   -0.45   -0.24    0.00    0.00       0.04   -0.84   -0.45
#  29    0.79   -1.68    0.62   -0.65   -0.25    0.00    0.00      -1.16   -1.16   -0.45
#  30   -9.94   -0.02    0.00    2.08    0.21    0.00    0.00      -7.67   10.06    1.00
#  31   -3.57   -0.38    0.09    1.15   -0.10    0.00    0.00      -2.82    3.08   -0.28
#  32   -0.79   -0.22    0.05    0.66   -0.05    0.00    0.00      -0.35    3.78   -0.28
#  33   -1.97   -0.21    0.02    0.72   -0.06    0.00    0.00      -1.51    3.34   -0.28
#  34  -16.85   -0.02    0.00    2.57    0.11    0.00    0.00     -14.19   13.55    0.56
#  35   -2.73   -0.21    0.01    1.80   -0.06    0.00    0.00      -1.20    8.01   -0.28
#  36   -6.76   -0.46    0.34    3.32   -0.10    0.00    0.00      -3.66    9.71   -0.28
#  37  -15.61   -0.03    0.00    3.38    0.14    0.00    0.00     -12.12   11.97    0.50
#  38   -1.35   -0.18    0.02    0.69   -0.05    0.00    0.00      -0.88    3.67   -0.28
#  39   -3.11   -0.73    0.96    0.79   -0.10    0.00    0.00      -2.20    2.15   -0.28
#  40   -3.50   -0.93    0.49    0.60   -0.15    0.00    0.00      -3.50    1.15   -0.28
#  41   -3.67   -1.88    4.53    0.86   -0.15    0.00    0.00      -0.30    1.66   -0.28
#  42   -0.96   -0.20    0.02    0.45   -0.05    0.00    0.00      -0.74    2.53   -0.27
#  43   -1.84   -0.48    0.21    0.38   -0.11    0.00    0.00      -1.84    0.92   -0.27
#  44   -3.33   -0.60    0.15    1.34   -0.16    0.00    0.00      -2.60    2.37   -0.28
#  45   -2.39   -0.53    0.24    1.84   -0.09    0.00    0.00      -0.93    4.50   -0.23

@<TRIPOS>MOLECULE
          T525329        38
   45    47     0     0     0



@<TRIPOS>ATOM
      1 O1          7.1701    -7.7556    94.0073 O.3        1          -0.5413
      2 C1          6.8948    -7.1994    95.2947 C.3        1           0.1493
      3 C2          5.3829    -7.0452    95.4709 C.3        1           0.0408
      4 N1          4.8583    -6.1553    94.4323 N.pl3      1          -0.6467
      5 C3          3.5185    -5.8669    94.3889 C.2        1           0.5614
      6 C4          2.6512    -6.4057    95.3246 C.2        1          -0.3283
      7 C5          1.2989    -6.0945    95.2550 C.2        1           0.2913
      8 N2          0.8465    -5.2949    94.3082 N.pl3      1          -0.5920
      9 H1         -0.1002    -5.0868    94.2729 H          1           0.4535
     10 C6          1.6689    -4.7658    93.3970 C.2        1           0.5659
     11 N3          3.0163    -5.0375    93.4243 N.pl3      1          -0.5910
     12 N4          1.1808    -3.9665    92.4596 N.2        1          -0.5080
     13 C7         -0.1308    -3.5856    92.5018 C.ar       1           0.0800
     14 C8         -1.1065    -4.3563    91.8634 C.ar       1          -0.1574
     15 C9         -2.4285    -3.9661    91.9105 C.ar       1          -0.0850
     16 C10        -2.7901    -2.8138    92.5879 C.ar       1          -0.0337
     17 Cl1        -4.4565    -2.3304    92.6424 Cl         1          -0.0441
     18 C11        -1.8285    -2.0454    93.2225 C.ar       1          -0.0850
     19 C12        -0.5035    -2.4266    93.1882 C.ar       1          -0.0874
     20 C13         7.4344    -8.1151    96.3631 C.ar       1          -0.1390
     21 C14         7.5022    -9.4774    96.1364 C.ar       1          -0.0551
     22 C15         7.9971   -10.3172    97.1162 C.ar       1          -0.1737
     23 C16         8.4248    -9.7951    98.3228 C.ar       1          -0.0544
     24 C17         8.3579    -8.4333    98.5491 C.ar       1          -0.1095
     25 C18         7.8668    -7.5928    97.5674 C.ar       1          -0.0759
     26 C19         8.0700   -11.8021    96.8695 C.3        1           0.5068
     27 F1          7.5841   -12.0864    95.5887 F          1          -0.1735
     28 F2          9.3994   -12.2265    96.9688 F          1          -0.1709
     29 F3          7.2942   -12.4718    97.8219 F          1          -0.1744
     30 H2          6.8502    -7.2178    93.2701 H          1           0.3838
     31 H3          7.3719    -6.2230    95.3782 H          1           0.1311
     32 H4          4.9059    -8.0219    95.3875 H          1           0.1015
     33 H5          5.1730    -6.6211    96.4529 H          1           0.1088
     34 H6          5.4590    -5.7699    93.7752 H          1           0.4497
     35 H7          3.0218    -7.0605    96.0994 H          1           0.1980
     36 H8          0.6142    -6.5097    95.9796 H          1           0.2151
     37 H9          3.6067    -4.6462    92.7615 H          1           0.4530
     38 H10        -0.8259    -5.2551    91.3345 H          1           0.1332
     39 H11        -3.1835    -4.5606    91.4174 H          1           0.1460
     40 H12        -2.1174    -1.1479    93.7491 H          1           0.1488
     41 H13         0.2448    -1.8287    93.6871 H          1           0.1446
     42 H14         7.1681    -9.8852    95.1938 H          1           0.1408
     43 H15         8.8109   -10.4515    99.0887 H          1           0.1449
     44 H16         8.6917    -8.0255    99.4919 H          1           0.1447
     45 H17         7.8181    -6.5281    97.7428 H          1           0.1330
@<TRIPOS>BOND
     1    1    2 1
     2    1   30 1
     3    2    3 1
     4    2   20 1
     5    2   31 1
     6    3    4 1
     7    3   32 1
     8    3   33 1
     9    4    5 1
    10    4   34 1
    11    5   11 1
    12    5    6 2
    13    6    7 1
    14    6   35 1
    15    7    8 2
    16    7   36 1
    17    8    9 1
    18    8   10 1
    19   10   11 1
    20   10   12 2
    21   11   37 1
    22   12   13 1
    23   13   19 ar
    24   13   14 ar
    25   14   15 ar
    26   14   38 1
    27   15   16 ar
    28   15   39 1
    29   16   17 1
    30   16   18 ar
    31   18   19 ar
    32   18   40 1
    33   19   41 1
    34   20   25 ar
    35   20   21 ar
    36   21   22 ar
    37   21   42 1
    38   22   23 ar
    39   22   26 1
    40   23   24 ar
    41   23   43 1
    42   24   25 ar
    43   24   44 1
    44   25   45 1
    45   26   27 1
    46   26   28 1
    47   26   29 1
##########                 Name:              T532626
##########          Protonation:                   21
##########               SMILES:   Cc1cc([nH]/c(=N/c2ccccc2)/[nH+]1)N[C@@H](Cc3ccccc3)C(=O)Nc4ccccc4
##########            Long Name:   methyl-2-phenylimino-1H-pyrimidin-3-ium-6-yl]amino]-N,3-diphenyl-propanamide
##########          FlexRecCode: 1
##########               Number:                   43
##########   Ligand Source File: /raidb/db2/rgc/tcams/tcams-0000975.db2.gz
##########           GlobalRank: 188
##########                 Rank:                    1
##########               Setnum:                  197
##########             Matchnum:                  713
##########                Cloud:                    1
##########        Electrostatic:           -37.400505
##########        Van der Waals:           -26.839005
##########  Ligand Polar Desolv:             2.050178
########## Ligand Apolar Desolv:            -4.320291
##########      Internal Energy:             0.000000
##########      Receptor Energy: 0.0
########## Receptor Desolvation:             0.000000
########## Receptor Hydrophobic:             0.000000
##########         Total Energy: -66.51
##########        Ligand Charge:             1.000000
##########            Arbitrary:    +999.9990
##########     heavy atom count:   32
##########           pose count:    1
##########        Ligand Energy:             0.000000
# num electro vdwattr vdwrepu polsolv apolsol rdesolv rhydroe totalscore fullpol fullapo
#   1    0.37   -0.18    0.01   -0.40   -0.02    0.00    0.00      -0.23   -3.98   -0.21
#   2   -3.21   -0.29    0.01    0.93   -0.09    0.00    0.00      -2.65    7.91   -0.75
#   3    6.56   -0.36    0.01   -1.97    0.14    0.00    0.00       4.38  -12.60    0.88
#   4   -3.05    0.00    0.00    0.37    0.02    0.00    0.00      -2.66    9.42    0.40
#   5  -11.69   -1.23    0.25    3.15   -1.22    0.00    0.00     -10.75   11.42   -4.44
#   6   23.07   -3.64    3.88   -4.43    0.24    0.00    0.00      19.13  -12.44    0.68
#   7  -17.21   -1.44    0.41    3.67   -0.42    0.00    0.00     -14.99   13.02   -1.48
#   8   22.69   -1.87    0.54   -5.05    0.48    0.00    0.00      16.79  -14.63    1.40
#   9   -2.56   -0.62    0.04    0.89   -0.08    0.00    0.00      -2.33    2.91   -0.26
#  10    2.67   -1.01    0.13   -0.85   -0.09    0.00    0.00       0.85   -1.98   -0.22
#  11    3.17   -1.28    0.13   -0.77   -0.08    0.00    0.00       1.17   -2.01   -0.21
#  12    2.01   -1.17    0.09   -0.81   -0.14    0.00    0.00      -0.01   -2.17   -0.38
#  13    1.12   -1.31    0.13   -0.68   -0.18    0.00    0.00      -0.93   -1.78   -0.47
#  14    1.79   -1.29    0.17   -0.73   -0.19    0.00    0.00      -0.26   -1.78   -0.47
#  15    3.29   -1.86    0.48   -0.98   -0.21    0.00    0.00       0.73   -2.14   -0.45
#  16    4.02   -1.90    0.43   -1.06   -0.15    0.00    0.00       1.34   -2.23   -0.32
#  17  -10.74   -1.59    0.42    3.09   -0.21    0.00    0.00      -9.03    8.80   -0.59
#  18    6.94   -5.87   12.79   -2.87    0.12    0.00    0.00      11.12   -7.15    0.31
#  19   15.33   -1.27    0.11   -4.05    0.63    0.00    0.00      10.75  -10.47    1.62
#  20   -2.93   -1.50    0.15    0.70   -0.31    0.00    0.00      -3.90    1.51   -0.68
#  21    3.40   -2.15    0.93   -0.76   -0.22    0.00    0.00       1.19   -1.59   -0.46
#  22    2.37   -2.20    0.52   -0.63   -0.27    0.00    0.00      -0.22   -1.10   -0.47
#  23    2.86   -2.31    0.41   -0.77   -0.30    0.00    0.00      -0.11   -1.21   -0.47
#  24    2.32   -2.82    0.52   -0.59   -0.29    0.00    0.00      -0.86   -0.96   -0.47
#  25    2.63   -2.82    0.84   -0.67   -0.21    0.00    0.00      -0.24   -1.26   -0.40
#  26    5.30   -0.46    0.02   -1.39   -0.08    0.00    0.00       3.38   -7.68   -0.46
#  27    6.90   -2.10    1.16   -2.71    0.64    0.00    0.00       3.89   -8.71    2.05
#  28   -0.36   -0.84    0.12    0.34   -0.13    0.00    0.00      -0.87    1.53   -0.58
#  29    1.34   -0.50    0.03   -0.42   -0.07    0.00    0.00       0.38   -2.32   -0.37
#  30    0.33   -1.01    0.53   -0.22   -0.08    0.00    0.00      -0.45   -1.27   -0.47
#  31    0.34   -1.10    0.52   -0.33   -0.09    0.00    0.00      -0.66   -1.76   -0.47
#  32    0.25   -0.65    0.04   -0.28   -0.11    0.00    0.00      -0.74   -1.21   -0.47
#  33    0.29   -0.99    0.22   -0.39   -0.11    0.00    0.00      -0.99   -1.66   -0.47
#  34   -0.13   -0.03    0.00    0.13   -0.01    0.00    0.00      -0.04    3.83   -0.28
#  35   -0.02   -0.12    0.02    0.24   -0.03    0.00    0.00       0.11    2.55   -0.28
#  36   -0.09   -0.05    0.00    0.21   -0.02    0.00    0.00       0.05    3.81   -0.28
#  37  -29.15   -0.31    0.22    4.31    0.13    0.00    0.00     -24.80    9.35    0.28
#  38  -22.13   -0.06    0.00    3.96    0.20    0.00    0.00     -18.03   10.51    0.52
#  39   -2.27   -0.10    0.00    0.33   -0.02    0.00    0.00      -2.05    3.98   -0.23
#  40   -3.33   -0.68    0.38    0.94   -0.12    0.00    0.00      -2.81    2.26   -0.28
#  41   -2.86   -0.30    0.03    1.05   -0.08    0.00    0.00      -2.16    3.21   -0.25
#  42   -1.77   -0.25    0.02    0.84   -0.07    0.00    0.00      -1.22    3.23   -0.28
#  43   -0.80   -0.44    0.11    0.38   -0.09    0.00    0.00      -0.84    1.16   -0.28
#  44   -2.09   -0.26    0.02    0.28   -0.07    0.00    0.00      -2.11    1.10   -0.28
#  45   -3.90   -0.49    0.10    1.16   -0.14    0.00    0.00      -3.27    2.32   -0.28
#  46   -5.28   -0.53    0.16    1.54   -0.13    0.00    0.00      -4.25    3.26   -0.28
#  47  -11.51   -0.02    0.00    2.30    0.13    0.00    0.00      -9.09    9.10    0.53
#  48   -4.33   -0.99    2.05    1.01   -0.11    0.00    0.00      -2.38    2.51   -0.28
#  49   -3.20   -0.78    0.50    0.72   -0.13    0.00    0.00      -2.89    1.49   -0.28
#  50   -3.07   -0.59    0.14    0.54   -0.15    0.00    0.00      -3.12    0.99   -0.28
#  51   -2.98   -0.87    0.24    0.59   -0.17    0.00    0.00      -3.19    0.97   -0.28
#  52   -2.78   -1.30    1.42    0.51   -0.11    0.00    0.00      -2.27    1.02   -0.22
#  53   -2.24   -0.08    0.00    0.49   -0.02    0.00    0.00      -1.85    6.83   -0.28
#  54   -1.67   -0.07    0.00    0.17   -0.02    0.00    0.00      -1.59    2.60   -0.28
#  55   -0.45   -0.29    0.25    0.33   -0.04    0.00    0.00      -0.20    2.17   -0.28
#  56   -0.37   -0.33    0.24    0.24   -0.05    0.00    0.00      -0.27    1.39   -0.28
#  57   -0.30   -0.13    0.01    0.17   -0.04    0.00    0.00      -0.29    1.24   -0.28
#  58   -0.28   -0.47    0.36    0.25   -0.06    0.00    0.00      -0.20    1.13   -0.28

@<TRIPOS>MOLECULE
          T532626        21
   58    61     0     0     0



@<TRIPOS>ATOM
      1 C1          3.4641    -9.1241    90.5314 C.3        1          -0.1534
      2 C2          3.8610    -7.6709    90.5723 C.2        1           0.3209
      3 N1          4.4176    -7.1129    89.5143 N.pl3      1          -0.5903
      4 H1          4.5662    -7.6455    88.7173 H          1           0.4496
      5 C3          4.7800    -5.8265    89.5198 C.2        1           0.5681
      6 N2          4.5829    -5.0454    90.6338 N.pl3      1          -0.5896
      7 C4          4.0089    -5.5915    91.7483 C.2        1           0.5713
      8 N3          3.8025    -4.8310    92.8705 N.pl3      1          -0.6415
      9 C5          2.6802    -5.1318    93.7630 C.3        1           0.1042
     10 C6          3.0462    -4.7340    95.1943 C.3        1          -0.0974
     11 C7          4.2610    -5.5087    95.6360 C.ar       1          -0.1235
     12 C8          4.1111    -6.7351    96.2557 C.ar       1          -0.1226
     13 C9          5.2255    -7.4457    96.6609 C.ar       1          -0.0876
     14 C10         6.4899    -6.9300    96.4458 C.ar       1          -0.0982
     15 C11         6.6399    -5.7040    95.8252 C.ar       1          -0.1198
     16 C12         5.5256    -4.9953    95.4162 C.ar       1          -0.1227
     17 C13         1.4654    -4.3572    93.3213 C.2        1           0.5153
     18 O1          1.5306    -3.6256    92.3560 O.2        1          -0.4989
     19 N4          0.3066    -4.4773    93.9988 N.am       1          -0.6546
     20 C14        -0.8214    -3.7581    93.5887 C.ar       1           0.1259
     21 C15        -2.0927    -4.2699    93.8135 C.ar       1          -0.1354
     22 C16        -3.2040    -3.5574    93.4074 C.ar       1          -0.0978
     23 C17        -3.0519    -2.3358    92.7777 C.ar       1          -0.1208
     24 C18        -1.7874    -1.8237    92.5520 C.ar       1          -0.0997
     25 C19        -0.6723    -2.5282    92.9611 C.ar       1          -0.1174
     26 C20         3.6338    -6.9246    91.7221 C.2        1          -0.3333
     27 N5          5.3363    -5.2980    88.4392 N.2        1          -0.5038
     28 C21         5.4222    -6.0288    87.2886 C.ar       1           0.0811
     29 C22         6.5413    -6.8310    87.0479 C.ar       1          -0.1708
     30 C23         6.6209    -7.5661    85.8838 C.ar       1          -0.0948
     31 C24         5.5963    -7.5108    84.9550 C.ar       1          -0.1138
     32 C25         4.4852    -6.7189    85.1863 C.ar       1          -0.0939
     33 C26         4.3887    -5.9827    86.3484 C.ar       1          -0.1028
     34 H2          3.7174    -9.5426    89.5573 H          1           0.1255
     35 H3          3.9975    -9.6685    91.3106 H          1           0.1026
     36 H4          2.3903    -9.2122    90.6967 H          1           0.1229
     37 H5          4.8497    -4.1128    90.6294 H          1           0.4486
     38 H6          4.3994    -4.0937    93.0734 H          1           0.4514
     39 H7          2.4634    -6.1994    93.7266 H          1           0.1231
     40 H8          3.2630    -3.6665    95.2306 H          1           0.1048
     41 H9          2.2114    -4.9580    95.8583 H          1           0.1103
     42 H10         3.1233    -7.1381    96.4238 H          1           0.1325
     43 H11         5.1083    -8.4036    97.1457 H          1           0.1318
     44 H12         7.3605    -7.4848    96.7630 H          1           0.1257
     45 H13         7.6277    -5.3009    95.6575 H          1           0.1242
     46 H14         5.6430    -4.0392    94.9279 H          1           0.1239
     47 H15         0.2545    -5.0624    94.7706 H          1           0.4153
     48 H16        -2.2121    -5.2240    94.3050 H          1           0.1286
     49 H17        -4.1929    -3.9550    93.5816 H          1           0.1325
     50 H18        -3.9225    -1.7807    92.4611 H          1           0.1298
     51 H19        -1.6719    -0.8694    92.0595 H          1           0.1303
     52 H20         0.3150    -2.1253    92.7891 H          1           0.1318
     53 H21         3.1738    -7.3798    92.5867 H          1           0.1959
     54 H22         7.3418    -6.8749    87.7717 H          1           0.1218
     55 H23         7.4851    -8.1860    85.6961 H          1           0.1327
     56 H24         5.6644    -8.0884    84.0450 H          1           0.1334
     57 H25         3.6898    -6.6805    84.4568 H          1           0.1360
     58 H26         3.5191    -5.3686    86.5297 H          1           0.1329
@<TRIPOS>BOND
     1    1    2 1
     2    1   34 1
     3    1   35 1
     4    1   36 1
     5    2   26 1
     6    2    3 2
     7    3    4 1
     8    3    5 1
     9    5    6 1
    10    5   27 2
    11    6    7 1
    12    6   37 1
    13    7    8 1
    14    7   26 2
    15    8    9 1
    16    8   38 1
    17    9   10 1
    18    9   17 1
    19    9   39 1
    20   10   11 1
    21   10   40 1
    22   10   41 1
    23   11   16 ar
    24   11   12 ar
    25   12   13 ar
    26   12   42 1
    27   13   14 ar
    28   13   43 1
    29   14   15 ar
    30   14   44 1
    31   15   16 ar
    32   15   45 1
    33   16   46 1
    34   17   18 2
    35   17   19 am
    36   19   20 1
    37   19   47 1
    38   20   25 ar
    39   20   21 ar
    40   21   22 ar
    41   21   48 1
    42   22   23 ar
    43   22   49 1
    44   23   24 ar
    45   23   50 1
    46   24   25 ar
    47   24   51 1
    48   25   52 1
    49   26   53 1
    50   27   28 1
    51   28   33 ar
    52   28   29 ar
    53   29   30 ar
    54   29   54 1
    55   30   31 ar
    56   30   55 1
    57   31   32 ar
    58   31   56 1
    59   32   33 ar
    60   32   57 1
    61   33   58 1
##########                 Name:              T542464
##########          Protonation:                   23
##########               SMILES:   c1)c2ccc(cc2)C(F)(F)F)CNc3nc(nc([nH+]3)N4CC[C@@H](CC4)[NH3+])NCCCc5ccc(cc5)O
##########            Long Name:   yl)phenyl]phenyl]methylamino]-1,3,5-triazin-1-ium-2-yl]-4-piperidyl]ammonium
##########          FlexRecCode: 1
##########               Number:                  105
##########   Ligand Source File: /raidb/db2/rgc/tcams/tcams-0002332.db2.gz
##########           GlobalRank: 188
##########                 Rank:                    1
##########               Setnum:                  361
##########             Matchnum:                 3504
##########                Cloud:                    1
##########        Electrostatic:           -50.913452
##########        Van der Waals:           -30.747982
##########  Ligand Polar Desolv:            20.186874
########## Ligand Apolar Desolv:            -5.038623
##########      Internal Energy:             0.000000
##########      Receptor Energy: 0.0
########## Receptor Desolvation:             0.000000
########## Receptor Hydrophobic:             0.000000
##########         Total Energy: -66.51
##########        Ligand Charge:             2.000000
##########            Arbitrary:    +999.9990
##########     heavy atom count:   42
##########           pose count:    1
##########        Ligand Energy:             0.000000
# num electro vdwattr vdwrepu polsolv apolsol rdesolv rhydroe totalscore fullpol fullapo
#   1   19.11   -1.71    0.67  -12.90    0.30    0.00    0.00       5.48  -31.74    0.74
#   2  -17.60   -0.05    0.00    9.71    0.24    0.00    0.00      -7.70   23.78    0.58
#   3  -10.97   -0.02    0.00    6.07    0.15    0.00    0.00      -4.78   23.25    0.58
#   4  -12.88   -0.04    0.00    8.96    0.21    0.00    0.00      -3.75   24.56    0.58
#   5   -0.54   -0.62    0.05    0.93   -0.09    0.00    0.00      -0.27    2.87   -0.29
#   6    1.37   -0.27    0.01   -1.32   -0.04    0.00    0.00      -0.25   -7.49   -0.24
#   7   -0.85   -0.22    0.01    0.38   -0.06    0.00    0.00      -0.74    2.98   -0.47
#   8    8.96   -0.73    0.07   -4.49    0.37    0.00    0.00       4.18  -20.62    1.68
#   9   -3.13   -1.56    1.35    1.28   -0.16    0.00    0.00      -2.23    3.73   -0.48
#  10    4.66   -1.09    0.40   -2.39   -0.09    0.00    0.00       1.49   -6.70   -0.24
#  11  -10.24   -0.91    0.23    4.89   -0.97    0.00    0.00      -7.00   23.45   -4.66
#  12   12.65   -3.22    4.01   -6.09    0.28    0.00    0.00       7.62  -21.80    0.99
#  13  -11.34   -0.17    0.07    6.94    0.11    0.00    0.00      -4.39   19.08    0.31
#  14  -10.78   -1.99    1.69    5.52   -1.19    0.00    0.00      -6.75   22.27   -4.81
#  15   11.38   -2.21    1.46   -6.03    0.49    0.00    0.00       5.08  -20.95    1.70
#  16   -1.26   -0.70    0.08    1.27   -0.10    0.00    0.00      -0.70    4.37   -0.33
#  17    1.39   -1.21    0.11   -0.75   -0.13    0.00    0.00      -0.59   -2.06   -0.37
#  18    0.99   -1.43    0.21   -0.83   -0.18    0.00    0.00      -1.25   -2.11   -0.45
#  19    1.59   -1.82    0.32   -1.60   -0.25    0.00    0.00      -1.76   -3.04   -0.47
#  20    1.58   -2.57    0.58   -1.56   -0.27    0.00    0.00      -2.24   -2.67   -0.47
#  21    1.48   -2.41    0.68   -1.49   -0.25    0.00    0.00      -1.99   -2.74   -0.46
#  22    0.49   -1.38    0.14   -0.36   -0.17    0.00    0.00      -1.27   -0.83   -0.38
#  23    0.32   -1.28    0.15   -0.06   -0.13    0.00    0.00      -1.00   -0.15   -0.34
#  24    2.67   -1.65    0.41   -1.08   -0.20    0.00    0.00       0.15   -2.46   -0.46
#  25    1.78   -1.63    0.23   -0.81   -0.19    0.00    0.00      -0.62   -1.88   -0.44
#  26    4.45   -1.19    0.09   -1.61   -0.15    0.00    0.00       1.61   -4.19   -0.38
#  27    1.31   -1.13    0.08   -0.57   -0.18    0.00    0.00      -0.50   -1.41   -0.44
#  28    1.54   -1.54    0.24   -1.02   -0.15    0.00    0.00      -0.94   -2.53   -0.37
#  29  -13.16   -1.06    0.18    3.42   -0.03    0.00    0.00     -10.64    8.54   -0.07
#  30    5.48   -1.86    0.79   -1.55   -0.23    0.00    0.00       2.63   -3.21   -0.48
#  31    3.72   -0.41    0.01   -0.96   -0.13    0.00    0.00       2.23   -3.24   -0.45
#  32    4.32   -2.04    2.02   -1.43   -0.22    0.00    0.00       2.65   -2.92   -0.45
#  33    5.45   -0.67    0.10   -3.59    0.38    0.00    0.00       1.66  -18.54    1.96
#  34   -5.02   -0.35    0.02    2.30   -0.61    0.00    0.00      -3.67   18.02   -4.81
#  35    2.56   -0.26    0.01   -1.79    0.18    0.00    0.00       0.70  -16.99    1.73
#  36   -0.27   -0.08    0.00    0.18   -0.02    0.00    0.00      -0.19    3.55   -0.43
#  37    0.20   -0.12    0.00   -0.18   -0.02    0.00    0.00      -0.12   -2.50   -0.22
#  38    0.17   -0.22    0.01   -0.18   -0.03    0.00    0.00      -0.26   -1.42   -0.23
#  39    0.14   -0.78    0.17   -0.22   -0.06    0.00    0.00      -0.74   -1.23   -0.36
#  40   -0.01   -0.38    0.05   -0.17   -0.05    0.00    0.00      -0.57   -1.44   -0.46
#  41   -0.02   -0.44    0.06   -0.23   -0.06    0.00    0.00      -0.70   -1.86   -0.46
#  42   -0.05   -1.07    0.28    0.06   -0.07    0.00    0.00      -0.84    0.25   -0.31
#  43    0.07   -0.56    0.04   -0.93    0.28    0.00    0.00      -1.11   -4.01    1.19
#  44    0.69   -3.34    2.89   -0.58   -0.14    0.00    0.00      -0.48   -1.86   -0.46
#  45    0.70   -2.97    2.51   -0.39   -0.12    0.00    0.00      -0.28   -1.44   -0.46
#  46    5.65   -0.33    0.02   -2.39    0.23    0.00    0.00       3.17  -19.49    1.84
#  47   -3.37   -0.24    0.03    2.11   -0.07    0.00    0.00      -1.54    8.57   -0.28
#  48   -0.94   -0.07    0.00    0.32   -0.02    0.00    0.00      -0.70    4.69   -0.28
#  49   -0.30   -0.08    0.00    0.73   -0.03    0.00    0.00       0.33    7.67   -0.28
#  50   -0.48   -0.04    0.00    0.20   -0.01    0.00    0.00      -0.33    5.42   -0.20
#  51   -0.70   -0.07    0.00    0.33   -0.02    0.00    0.00      -0.45    6.06   -0.28
#  52   -4.72   -0.97    1.58    0.82   -0.09    0.00    0.00      -3.37    2.26   -0.24
#  53   -2.19   -0.63    0.56    1.45   -0.09    0.00    0.00      -0.91    4.34   -0.28
#  54   -4.38   -0.76    0.75    2.26   -0.12    0.00    0.00      -2.25    5.43   -0.28
#  55   -2.65   -0.20    0.02    0.73   -0.06    0.00    0.00      -2.16    3.68   -0.28
#  56  -10.59   -0.06    0.00    3.72    0.17    0.00    0.00      -6.75   12.57    0.58
#  57   -0.60   -0.22    0.05    0.91   -0.03    0.00    0.00       0.11    5.59   -0.17
#  58   -0.52   -0.20    0.02    1.17   -0.05    0.00    0.00       0.42    6.48   -0.27
#  59   -1.32   -0.25    0.03    1.09   -0.06    0.00    0.00      -0.50    5.25   -0.28
#  60   -2.09   -0.34    0.04    0.93   -0.11    0.00    0.00      -1.57    2.33   -0.28
#  61   -3.62   -1.01    0.98    0.91   -0.17    0.00    0.00      -2.90    1.52   -0.28
#  62   -1.92   -0.93    1.07    0.93   -0.15    0.00    0.00      -1.00    1.76   -0.28
#  63   -4.32   -0.37    0.08    1.07   -0.12    0.00    0.00      -3.66    2.57   -0.28
#  64   -5.80   -0.43    0.06    0.78   -0.12    0.00    0.00      -5.51    1.79   -0.27
#  65   -2.64   -0.23    0.01    1.50   -0.07    0.00    0.00      -1.43    5.45   -0.27
#  66   -0.63   -0.67    0.39    2.81   -0.09    0.00    0.00       1.82    7.31   -0.24
#  67   -1.39   -0.01    0.00    0.90    0.05    0.00    0.00      -0.45   11.53    0.58
#  68   -0.10   -0.02    0.00    0.04   -0.01    0.00    0.00      -0.08    1.87   -0.28
#  69   -0.28   -0.02    0.00    0.04   -0.01    0.00    0.00      -0.26    1.91   -0.28
#  70   -0.17   -0.06    0.00    0.10   -0.02    0.00    0.00      -0.15    1.70   -0.28
#  71   -0.06   -0.02    0.00    0.03   -0.01    0.00    0.00      -0.05    1.70   -0.28
#  72   -0.12   -0.04    0.00    0.06   -0.01    0.00    0.00      -0.11    1.89   -0.28
#  73   -0.35   -0.09    0.00    0.19   -0.03    0.00    0.00      -0.27    1.91   -0.28
#  74   -0.02   -0.03    0.00    0.07   -0.01    0.00    0.00       0.02    2.74   -0.28
#  75    0.01   -0.03    0.00    0.03   -0.01    0.00    0.00       0.00    1.18   -0.28
#  76   -0.02    0.00    0.00    0.20    0.05    0.00    0.00       0.22    5.01    1.22
#  77   -0.93   -1.15    1.21    0.50   -0.12    0.00    0.00      -0.48    1.18   -0.28
#  78   -2.45   -1.13    1.88    0.91   -0.09    0.00    0.00      -0.89    2.72   -0.28

@<TRIPOS>MOLECULE
          T542464        23
   78    82     0     0     0



@<TRIPOS>ATOM
      1 N1          9.7301    -5.2446    86.2968 N.4        1          -0.6364
      2 H1          9.8048    -4.2398    86.3521 H          1           0.4438
      3 H2          8.7900    -5.4977    86.0320 H          1           0.4364
      4 H3         10.3791    -5.5927    85.6072 H          1           0.4418
      5 C1         10.0450    -5.8317    87.6061 C.3        1           0.0248
      6 C2          9.9331    -7.3557    87.5214 C.3        1          -0.1629
      7 C3         10.2956    -7.9664    88.8787 C.3        1           0.1070
      8 N2          9.4497    -7.3558    89.9132 N.pl3      1          -0.5759
      9 C4          9.4129    -5.8910    90.0220 C.3        1           0.1235
     10 C5          9.0603    -5.3036    88.6518 C.3        1          -0.1638
     11 C6          8.7032    -8.1432    90.7662 C.ar       1           0.6940
     12 N3          8.4317    -7.7181    91.9963 N.ar       1          -0.6381
     13 H4          8.7579    -6.8546    92.2942 H          1           0.4318
     14 C7          7.7128    -8.4765    92.8179 C.ar       1           0.6930
     15 N4          7.4306    -8.0351    94.0949 N.pl3      1          -0.6481
     16 C8          6.6383    -8.8711    95.0002 C.3        1           0.1323
     17 C9          7.0555    -8.6048    96.4237 C.ar       1          -0.1211
     18 C10         8.0719    -9.3429    96.9960 C.ar       1          -0.0863
     19 C11         8.4556    -9.0997    98.3021 C.ar       1          -0.1065
     20 C12         7.8243    -8.1160    99.0422 C.ar       1          -0.0851
     21 C13         6.8072    -7.3719    98.4800 C.ar       1          -0.0972
     22 C14         6.4197    -7.6095    97.1626 C.ar       1          -0.0354
     23 C15         5.3301    -6.8090    96.5511 C.ar       1          -0.0186
     24 C16         5.6262    -5.6301    95.8699 C.ar       1          -0.1007
     25 C17         4.6091    -4.8898    95.3025 C.ar       1          -0.0572
     26 C18         3.2974    -5.3162    95.4092 C.ar       1          -0.1764
     27 C19         2.9977    -6.4855    96.0845 C.ar       1          -0.0719
     28 C20         4.0077    -7.2366    96.6508 C.ar       1          -0.1243
     29 C21         2.1909    -4.5036    94.7876 C.3        1           0.5058
     30 F1          2.7345    -3.3745    94.1655 F          1          -0.1799
     31 F2          1.5183    -5.2805    93.8384 F          1          -0.1751
     32 F3          1.2928    -4.1011    95.7819 F          1          -0.1680
     33 N5          7.2653    -9.6599    92.4097 N.ar       1          -0.6066
     34 C22         7.5368   -10.0848    91.1796 C.ar       1           0.6773
     35 N6          7.0722   -11.3133    90.7558 N.pl3      1          -0.6285
     36 C23         7.3713   -11.7817    89.4004 C.3        1           0.1126
     37 C24         8.1564   -13.0926    89.4754 C.3        1          -0.1317
     38 C25         9.4642   -12.8611    90.2352 C.3        1          -0.0715
     39 C26        10.2376   -14.1523    90.3092 C.ar       1          -0.1046
     40 C27        11.1420   -14.4732    89.3137 C.ar       1          -0.0980
     41 C28        11.8522   -15.6562    89.3793 C.ar       1          -0.1428
     42 C29        11.6578   -16.5225    90.4453 C.ar       1           0.1113
     43 O1         12.3557   -17.6867    90.5122 O.3        1          -0.4979
     44 C30        10.7502   -16.1980    91.4431 C.ar       1          -0.1431
     45 C31        10.0459   -15.0115    91.3753 C.ar       1          -0.0983
     46 N7          8.2512    -9.3240    90.3560 N.ar       1          -0.6151
     47 H5         11.0603    -5.5576    87.8923 H          1           0.1527
     48 H6          8.9116    -7.6316    87.2596 H          1           0.1008
     49 H7         10.6178    -7.7290    86.7600 H          1           0.1204
     50 H8         10.1226    -9.0423    88.8534 H          1           0.0953
     51 H9         11.3443    -7.7680    89.1003 H          1           0.1166
     52 H10         8.6575    -5.5976    90.7508 H          1           0.1335
     53 H11        10.3897    -5.5235    90.3367 H          1           0.1047
     54 H12         9.1237    -4.2163    88.6949 H          1           0.1192
     55 H13         8.0469    -5.5988    88.3793 H          1           0.1001
     56 H14         7.7569    -7.1716    94.3927 H          1           0.4471
     57 H15         5.5809    -8.6346    94.8811 H          1           0.0946
     58 H16         6.8045    -9.9219    94.7634 H          1           0.0965
     59 H17         8.5681   -10.1120    96.4227 H          1           0.1324
     60 H18         9.2509    -9.6799    98.7462 H          1           0.1376
     61 H19         8.1277    -7.9304   100.0620 H          1           0.1392
     62 H20         6.3147    -6.6044    99.0587 H          1           0.1362
     63 H21         6.6498    -5.2961    95.7864 H          1           0.1440
     64 H22         4.8373    -3.9758    94.7747 H          1           0.1455
     65 H23         1.9720    -6.8136    96.1653 H          1           0.1361
     66 H24         3.7731    -8.1517    97.1740 H          1           0.1349
     67 H25         6.5477   -11.8666    91.3555 H          1           0.4328
     68 H26         6.4397   -11.9465    88.8591 H          1           0.0915
     69 H27         7.9660   -11.0313    88.8796 H          1           0.0921
     70 H28         7.5618   -13.8431    89.9962 H          1           0.0794
     71 H29         8.3790   -13.4411    88.4669 H          1           0.0788
     72 H30        10.0590   -12.1106    89.7144 H          1           0.0797
     73 H31         9.2417   -12.5126    91.2437 H          1           0.0802
     74 H32        11.2929   -13.7985    88.4840 H          1           0.1261
     75 H33        12.5579   -15.9068    88.6011 H          1           0.1317
     76 H34        12.9632   -17.8241    89.7725 H          1           0.3948
     77 H35        10.5968   -16.8710    92.2738 H          1           0.1314
     78 H36         9.3423   -14.7566    92.1540 H          1           0.1257
@<TRIPOS>BOND
     1    1    2 1
     2    1    3 1
     3    1    4 1
     4    1    5 1
     5    5   10 1
     6    5    6 1
     7    5   47 1
     8    6    7 1
     9    6   48 1
    10    6   49 1
    11    7    8 1
    12    7   50 1
    13    7   51 1
    14    8    9 1
    15    8   11 1
    16    9   10 1
    17    9   52 1
    18    9   53 1
    19   10   54 1
    20   10   55 1
    21   11   46 ar
    22   11   12 ar
    23   12   13 1
    24   12   14 ar
    25   14   15 1
    26   14   33 ar
    27   15   16 1
    28   15   56 1
    29   16   17 1
    30   16   57 1
    31   16   58 1
    32   17   22 ar
    33   17   18 ar
    34   18   19 ar
    35   18   59 1
    36   19   20 ar
    37   19   60 1
    38   20   21 ar
    39   20   61 1
    40   21   22 ar
    41   21   62 1
    42   22   23 1
    43   23   28 ar
    44   23   24 ar
    45   24   25 ar
    46   24   63 1
    47   25   26 ar
    48   25   64 1
    49   26   27 ar
    50   26   29 1
    51   27   28 ar
    52   27   65 1
    53   28   66 1
    54   29   30 1
    55   29   31 1
    56   29   32 1
    57   33   34 ar
    58   34   35 1
    59   34   46 ar
    60   35   36 1
    61   35   67 1
    62   36   37 1
    63   36   68 1
    64   36   69 1
    65   37   38 1
    66   37   70 1
    67   37   71 1
    68   38   39 1
    69   38   72 1
    70   38   73 1
    71   39   45 ar
    72   39   40 ar
    73   40   41 ar
    74   40   74 1
    75   41   42 ar
    76   41   75 1
    77   42   43 1
    78   42   44 ar
    79   43   76 1
    80   44   45 ar
    81   44   77 1
    82   45   78 1
##########                 Name:              T533626
##########          Protonation:                   17
##########               SMILES:   ([NH+]2Cc3c(cccc3)CC2)C(=O)N[C@H]4CC[NH+](CC4)C[C@@H](O)c5c6c(ncc5)ccc(c6)OC
##########            Long Name:   l]-2-(4-methoxyphenyl)-2-(1,2,3,4-tetrahydroisoquinolin-2-ium-2-yl)acetamide
##########          FlexRecCode: 1
##########               Number:                  104
##########   Ligand Source File: /raidb/db2/rgc/tcams/tcams-0001180.db2.gz
##########           GlobalRank: 189
##########                 Rank:                    1
##########               Setnum:                   59
##########             Matchnum:                 6590
##########                Cloud:                    1
##########        Electrostatic:           -37.968346
##########        Van der Waals:           -27.478319
##########  Ligand Polar Desolv:             0.740966
########## Ligand Apolar Desolv:            -1.786375
##########      Internal Energy:             0.000000
##########      Receptor Energy: 0.0
########## Receptor Desolvation:             0.000000
########## Receptor Hydrophobic:             0.000000
##########         Total Energy: -66.49
##########        Ligand Charge:             2.000000
##########            Arbitrary:    +999.9990
##########     heavy atom count:   43
##########           pose count:    1
##########        Ligand Energy:             0.000000
# num electro vdwattr vdwrepu polsolv apolsol rdesolv rhydroe totalscore fullpol fullapo
#   1   -0.03   -0.33    0.04    0.07    0.01    0.00    0.00      -0.25    0.40    0.03
#   2    0.32   -0.38    0.04   -1.15    0.15    0.00    0.00      -1.01   -6.96    0.93
#   3   -0.16   -0.25    0.01    0.18   -0.03    0.00    0.00      -0.26    1.60   -0.31
#   4    0.12   -0.34    0.03   -0.88   -0.06    0.00    0.00      -1.12   -6.56   -0.42
#   5    0.02   -0.19    0.01    0.01   -0.04    0.00    0.00      -0.19    0.11   -0.45
#   6    0.17   -0.09    0.00   -0.25   -0.01    0.00    0.00      -0.19   -5.23   -0.25
#   7    0.07   -0.11    0.00   -0.10   -0.02    0.00    0.00      -0.16   -1.95   -0.40
#   8    0.15   -0.15    0.00   -0.33   -0.03    0.00    0.00      -0.36   -5.09   -0.46
#   9   -0.07   -0.05    0.00    0.17   -0.01    0.00    0.00       0.04    4.03   -0.17
#  10    0.42   -0.07    0.00   -0.64    0.00    0.00    0.00      -0.29  -15.33    0.03
#  11   -0.50    0.00    0.00    0.46    0.01    0.00    0.00      -0.03   16.40    0.39
#  12    0.00   -0.03    0.00    0.02   -0.01    0.00    0.00      -0.02    0.56   -0.38
#  13    0.07   -0.05    0.00   -0.13   -0.01    0.00    0.00      -0.12   -3.63   -0.24
#  14    0.08   -0.19    0.00   -0.15   -0.03    0.00    0.00      -0.28   -2.17   -0.40
#  15    0.07   -0.38    0.02   -0.48   -0.06    0.00    0.00      -0.84   -3.47   -0.46
#  16    0.07   -1.09    0.18   -0.88   -0.13    0.00    0.00      -1.84   -3.26   -0.47
#  17    0.16   -1.24    0.17   -1.12   -0.15    0.00    0.00      -2.18   -3.58   -0.47
#  18    0.17   -0.70    0.09   -0.59   -0.10    0.00    0.00      -1.13   -2.75   -0.46
#  19    0.18   -0.25    0.01   -0.27   -0.04    0.00    0.00      -0.36   -2.80   -0.41
#  20   -0.06   -0.10    0.00    0.16   -0.02    0.00    0.00      -0.03    2.32   -0.33
#  21   -1.10   -0.15    0.00    1.33   -0.03    0.00    0.00       0.04   21.17   -0.53
#  22    0.92   -0.24    0.00   -2.35    0.04    0.00    0.00      -1.62  -20.35    0.33
#  23    4.61   -0.20    0.00   -2.51    0.15    0.00    0.00       2.05  -29.92    1.77
#  24   -1.76   -0.39    0.02    1.19   -0.06    0.00    0.00      -0.99    5.63   -0.28
#  25    4.15   -0.71    0.16   -1.48   -0.05    0.00    0.00       2.07   -6.21   -0.23
#  26    0.39   -0.51    0.08   -0.19   -0.07    0.00    0.00      -0.30   -0.93   -0.36
#  27   10.44   -0.77    0.19   -3.75    0.06    0.00    0.00       6.18  -17.19    0.27
#  28  -18.70   -0.04    0.00    4.79    0.11    0.00    0.00     -13.84   20.75    0.49
#  29    0.86   -0.43    0.03   -0.23   -0.07    0.00    0.00       0.16   -1.06   -0.33
#  30   -3.34   -0.70    0.10    1.54   -0.03    0.00    0.00      -2.43    5.34   -0.11
#  31   21.59   -2.15    1.69   -8.68    0.66    0.00    0.00      13.12  -20.80    1.58
#  32    1.58   -0.98    0.07   -0.35   -0.11    0.00    0.00       0.21   -1.08   -0.35
#  33    0.40   -1.15    0.13   -0.55   -0.13    0.00    0.00      -1.30   -1.70   -0.40
#  34    1.35   -1.15    0.23   -0.85   -0.12    0.00    0.00      -0.54   -3.09   -0.43
#  35   -0.96   -1.10    0.13    0.82   -0.10    0.00    0.00      -1.21    2.65   -0.31
#  36    2.42   -0.73    0.05   -2.26    0.27    0.00    0.00      -0.26   -7.84    0.93
#  37   -0.30   -1.56    1.15    0.10    0.01    0.00    0.00      -0.61    0.28    0.03
#  38    1.05   -1.38    0.15   -1.40   -0.18    0.00    0.00      -1.76   -3.39   -0.43
#  39    0.14   -2.03    0.60   -0.90   -0.20    0.00    0.00      -2.39   -2.12   -0.46
#  40   -0.65   -1.72    0.35    0.17   -0.28    0.00    0.00      -2.13    0.44   -0.73
#  41    4.07   -3.05    1.84   -3.82    0.93    0.00    0.00      -0.03   -8.22    2.00
#  42   -1.59   -2.00    0.41    0.72   -0.48    0.00    0.00      -2.93    1.47   -0.97
#  43    2.12   -1.29    0.16   -1.67   -0.18    0.00    0.00      -0.85   -4.10   -0.44
#  44    0.19   -0.32    0.01   -0.01   -0.07    0.00    0.00      -0.21   -0.06   -0.38
#  45    2.40   -0.58    0.07   -1.60   -0.06    0.00    0.00       0.24   -6.37   -0.23
#  46   -0.09   -0.13    0.02    0.24   -0.03    0.00    0.00       0.01    1.99   -0.27
#  47   -0.21   -0.17    0.05    0.18   -0.04    0.00    0.00      -0.20    1.28   -0.28
#  48   -0.08   -0.05    0.00    0.08   -0.01    0.00    0.00      -0.05    1.80   -0.27
#  49   -0.06   -0.14    0.03    0.60   -0.03    0.00    0.00       0.40    4.16   -0.22
#  50   -0.05   -0.04    0.00    0.56   -0.01    0.00    0.00       0.46   11.15   -0.28
#  51   -0.14   -0.03    0.00    0.16   -0.01    0.00    0.00      -0.02    4.91   -0.23
#  52   -0.18   -0.04    0.00    0.04   -0.01    0.00    0.00      -0.18    1.19   -0.28
#  53   -0.13   -0.01    0.00    0.33   -0.01    0.00    0.00       0.18   15.34   -0.27
#  54   -0.10   -0.01    0.00    0.15    0.00    0.00    0.00       0.04    8.88   -0.28
#  55   -0.10   -0.01    0.00    0.10    0.00    0.00    0.00      -0.01    6.21   -0.22
#  56   -0.06   -0.01    0.00    0.06    0.00    0.00    0.00      -0.02    3.36   -0.28
#  57   -0.08   -0.02    0.00    0.07   -0.01    0.00    0.00      -0.03    3.06   -0.28
#  58   -0.06   -0.05    0.00    0.09   -0.01    0.00    0.00      -0.02    2.09   -0.28
#  59   -0.07   -0.42    0.14    0.27   -0.08    0.00    0.00      -0.16    0.96   -0.28
#  60   -0.26   -0.51    0.14    0.66   -0.10    0.00    0.00      -0.07    1.79   -0.28
#  61   -0.33   -0.31    0.18    0.94   -0.05    0.00    0.00       0.44    5.42   -0.28
#  62   -0.28   -0.04    0.00    0.27   -0.01    0.00    0.00      -0.06    6.51   -0.22
#  63   -0.20   -0.02    0.00    0.29   -0.01    0.00    0.00       0.07   11.07   -0.28
#  64   -2.56    0.00    0.00    0.74    0.02    0.00    0.00      -1.81   22.23    0.47
#  65   -0.65   -0.16    0.01    0.21   -0.04    0.00    0.00      -0.64    1.25   -0.26
#  66   -2.42   -0.10    0.01    0.40   -0.03    0.00    0.00      -2.15    3.68   -0.28
#  67   -4.86   -0.83    0.92    0.96   -0.08    0.00    0.00      -3.89    3.32   -0.28
#  68   -1.74   -0.06    0.00    0.55   -0.01    0.00    0.00      -1.27   10.23   -0.27
#  69   -3.98   -0.23    0.05    1.28   -0.04    0.00    0.00      -2.93    6.42   -0.22
#  70   -2.66   -0.11    0.00    0.85   -0.03    0.00    0.00      -1.95    8.15   -0.28
#  71   -1.14   -0.15    0.02    1.15   -0.03    0.00    0.00      -0.16    9.32   -0.28
#  72   -3.11   -0.28    0.08    1.43   -0.04    0.00    0.00      -1.92    6.72   -0.18
#  73  -23.91   -0.23    0.18    5.41    0.34    0.00    0.00     -18.20   15.97    1.00
#  74   -1.23   -0.18    0.03    1.49   -0.03    0.00    0.00       0.07    9.56   -0.22
#  75   -1.09   -0.49    0.29    0.40   -0.07    0.00    0.00      -0.95    1.53   -0.27
#  76   -1.65   -0.53    0.35    1.16   -0.08    0.00    0.00      -0.76    3.88   -0.28
#  77   -1.18   -0.79    0.76    0.23   -0.10    0.00    0.00      -1.07    0.65   -0.27
#  78   -1.30   -0.30    0.04    0.86   -0.08    0.00    0.00      -0.78    2.52   -0.22
#  79   -0.68   -0.76    0.73    0.29   -0.11    0.00    0.00      -0.52    0.74   -0.28
#  80   -2.47   -0.57    0.14    1.33   -0.14    0.00    0.00      -1.70    2.74   -0.28
#  81   -3.05   -0.36    0.13    1.70   -0.06    0.00    0.00      -1.64    6.69   -0.22
#  82   -1.09   -0.06    0.00    0.56   -0.01    0.00    0.00      -0.60    9.74   -0.22
#  83   -2.37   -0.09    0.00    0.71   -0.03    0.00    0.00      -1.77    7.76   -0.28
#  84   -3.10   -0.45    0.15    1.24   -0.09    0.00    0.00      -2.25    3.96   -0.28
#  85   -0.78   -0.13    0.01    0.52   -0.04    0.00    0.00      -0.41    3.96   -0.28

@<TRIPOS>MOLECULE
          T533626        17
   85    90     0     0     0



@<TRIPOS>ATOM
      1 C1         -2.6424   -10.6456    90.2595 C.3        1           0.0194
      2 O1         -1.4275   -11.3378    90.5548 O.3        1          -0.3017
      3 C2         -0.3145   -10.9457    89.8806 C.ar       1           0.1755
      4 C3          0.8980   -11.5782    90.1138 C.ar       1          -0.2013
      5 C4          2.0278   -11.1781    89.4269 C.ar       1          -0.0405
      6 C5          1.9510   -10.1480    88.5079 C.ar       1          -0.2009
      7 C6          0.7438    -9.5157    88.2741 C.ar       1          -0.0661
      8 C7         -0.3902    -9.9161    88.9539 C.ar       1          -0.1353
      9 C8          3.1852    -9.7132    87.7604 C.3        1           0.0705
     10 N1          2.9690    -9.8834    86.3174 N.4        1          -0.3707
     11 H1          2.1839    -9.3209    86.0251 H          1           0.4316
     12 C9          2.6968   -11.2987    86.0239 C.3        1          -0.0046
     13 C10         2.1766   -11.4082    84.5899 C.3        1          -0.1045
     14 C11         3.1070   -10.6810    83.6530 C.ar       1          -0.0905
     15 C12         3.0186   -10.9403    82.2943 C.ar       1          -0.1019
     16 C13         3.8520   -10.2913    81.4055 C.ar       1          -0.0881
     17 C14         4.7788    -9.3780    81.8733 C.ar       1          -0.1033
     18 C15         4.8683    -9.1203    83.2264 C.ar       1          -0.0918
     19 C16         4.0328    -9.7729    84.1209 C.ar       1          -0.1337
     20 C17         4.1699    -9.4651    85.5888 C.3        1           0.0424
     21 C18         3.4685    -8.2635    88.0586 C.2        1           0.5175
     22 O2          2.9872    -7.3957    87.3611 O.2        1          -0.5009
     23 N2          4.2567    -7.9312    89.1000 N.am       1          -0.7127
     24 C19         4.5322    -6.5218    89.3898 C.3        1           0.1324
     25 C20         5.9133    -6.3929    90.0389 C.3        1          -0.1565
     26 C21         5.9135    -7.1361    91.3764 C.3        1          -0.0159
     27 N3          4.8983    -6.5553    92.2633 N.4        1          -0.3797
     28 H2          5.0799    -5.5698    92.3807 H          1           0.4327
     29 C22         4.9542    -7.2214    93.5714 C.3        1          -0.0457
     30 C23         6.3417    -7.0241    94.1852 C.3        1           0.1367
     31 O3          6.5953    -5.6275    94.3505 O.3        1          -0.5418
     32 C24         6.3990    -7.7073    95.5273 C.ar       1          -0.1021
     33 C25         6.8065    -9.0504    95.6386 C.ar       1          -0.0450
     34 C26         7.1725    -9.7980    94.5085 C.ar       1          -0.1826
     35 C27         7.5626   -11.0987    94.6577 C.ar       1           0.1587
     36 O4          7.9171   -11.8233    93.5642 O.3        1          -0.3182
     37 C28         8.3158   -13.1777    93.7847 C.3        1           0.0195
     38 C29         7.6017   -11.6926    95.9231 C.ar       1          -0.1781
     39 C30         7.2531   -10.9938    97.0361 C.ar       1          -0.0296
     40 C31         6.8458    -9.6524    96.9208 C.ar       1           0.0991
     41 N4          6.4989    -8.9428    97.9994 N.ar       1          -0.4382
     42 C32         6.1197    -7.6921    97.8994 C.ar       1           0.1224
     43 C33         6.0627    -7.0391    96.6698 C.ar       1          -0.1283
     44 C34         3.5638    -6.7393    91.6804 C.3        1          -0.0112
     45 C35         3.4730    -5.9808    90.3546 C.3        1          -0.1549
     46 H3         -3.4505   -11.0560    90.8647 H          1           0.0633
     47 H4         -2.5210    -9.5863    90.4852 H          1           0.1156
     48 H5         -2.8819   -10.7668    89.2031 H          1           0.0652
     49 H6          0.9587   -12.3825    90.8321 H          1           0.1462
     50 H7          2.9719   -11.6703    89.6082 H          1           0.1347
     51 H8          0.6865    -8.7109    87.5560 H          1           0.1287
     52 H9         -1.3338    -9.4248    88.7675 H          1           0.1499
     53 H10         4.0334   -10.3214    88.0748 H          1           0.1606
     54 H11         3.6154   -11.8766    86.1250 H          1           0.1358
     55 H12         1.9449   -11.6778    86.7159 H          1           0.1418
     56 H13         2.1218   -12.4584    84.3036 H          1           0.1287
     57 H14         1.1826   -10.9648    84.5301 H          1           0.1053
     58 H15         2.2946   -11.6538    81.9292 H          1           0.1374
     59 H16         3.7806   -10.4964    80.3477 H          1           0.1393
     60 H17         5.4315    -8.8669    81.1810 H          1           0.1387
     61 H18         5.5928    -8.4070    83.5905 H          1           0.1313
     62 H19         4.3152    -8.3930    85.7206 H          1           0.1423
     63 H20         5.0347    -9.9960    85.9868 H          1           0.1328
     64 H21         4.6415    -8.6253    89.6578 H          1           0.4049
     65 H22         4.5085    -5.9478    88.4634 H          1           0.1281
     66 H23         6.6664    -6.8268    89.3811 H          1           0.1181
     67 H24         6.1393    -5.3400    90.2074 H          1           0.1122
     68 H25         5.6877    -8.1889    91.2066 H          1           0.1241
     69 H26         6.8954    -7.0465    91.8411 H          1           0.1383
     70 H27         4.2006    -6.7909    94.2307 H          1           0.1434
     71 H28         4.7609    -8.2866    93.4453 H          1           0.1432
     72 H29         7.0953    -7.4546    93.5258 H          1           0.1345
     73 H30         6.5739    -5.1235    93.5256 H          1           0.3920
     74 H31         7.1455    -9.3479    93.5271 H          1           0.1253
     75 H32         8.5719   -13.6408    92.8317 H          1           0.0634
     76 H33         9.1839   -13.1984    94.4435 H          1           0.1075
     77 H34         7.4957   -13.7271    94.2469 H          1           0.0658
     78 H35         7.9133   -12.7224    96.0177 H          1           0.1463
     79 H36         7.2888   -11.4673    98.0061 H          1           0.1515
     80 H37         5.8469    -7.1525    98.7943 H          1           0.1716
     81 H38         5.7498    -6.0066    96.6201 H          1           0.1428
     82 H39         3.3879    -7.8006    91.5041 H          1           0.1221
     83 H40         2.8110    -6.3568    92.3696 H          1           0.1431
     84 H41         3.6486    -4.9194    90.5297 H          1           0.1169
     85 H42         2.4821    -6.1202    89.9227 H          1           0.1250
@<TRIPOS>BOND
     1    1    2 1
     2    1   46 1
     3    1   47 1
     4    1   48 1
     5    2    3 1
     6    3    8 ar
     7    3    4 ar
     8    4    5 ar
     9    4   49 1
    10    5    6 ar
    11    5   50 1
    12    6    7 ar
    13    6    9 1
    14    7    8 ar
    15    7   51 1
    16    8   52 1
    17    9   10 1
    18    9   21 1
    19    9   53 1
    20   10   11 1
    21   10   20 1
    22   10   12 1
    23   12   13 1
    24   12   54 1
    25   12   55 1
    26   13   14 1
    27   13   56 1
    28   13   57 1
    29   14   19 ar
    30   14   15 ar
    31   15   16 ar
    32   15   58 1
    33   16   17 ar
    34   16   59 1
    35   17   18 ar
    36   17   60 1
    37   18   19 ar
    38   18   61 1
    39   19   20 1
    40   20   62 1
    41   20   63 1
    42   21   22 2
    43   21   23 am
    44   23   24 1
    45   23   64 1
    46   24   45 1
    47   24   25 1
    48   24   65 1
    49   25   26 1
    50   25   66 1
    51   25   67 1
    52   26   27 1
    53   26   68 1
    54   26   69 1
    55   27   28 1
    56   27   29 1
    57   27   44 1
    58   29   30 1
    59   29   70 1
    60   29   71 1
    61   30   31 1
    62   30   32 1
    63   30   72 1
    64   31   73 1
    65   32   43 ar
    66   32   33 ar
    67   33   40 ar
    68   33   34 ar
    69   34   35 ar
    70   34   74 1
    71   35   36 1
    72   35   38 ar
    73   36   37 1
    74   37   75 1
    75   37   76 1
    76   37   77 1
    77   38   39 ar
    78   38   78 1
    79   39   40 ar
    80   39   79 1
    81   40   41 ar
    82   41   42 ar
    83   42   43 ar
    84   42   80 1
    85   43   81 1
    86   44   45 1
    87   44   82 1
    88   44   83 1
    89   45   84 1
    90   45   85 1
##########                 Name:              T538080
##########          Protonation:                   27
##########               SMILES:   CCOC(=O)/N=C\1/NC(=[NH2+])N(C(N1)(C)C)OCc2ccc(c(c2)Cl)Cl
##########            Long Name:   thoxy]-4-ethoxycarbonylimino-6,6-dimethyl-1,3,5-triazinan-2-ylidene]ammonium
##########          FlexRecCode: 1
##########               Number:                   14
##########   Ligand Source File: /raidb/db2/rgc/tcams/tcams-0001722.db2.gz
##########           GlobalRank: 190
##########                 Rank:                    1
##########               Setnum:                  122
##########             Matchnum:                 2594
##########                Cloud:                    1
##########        Electrostatic:           -41.585026
##########        Van der Waals:           -33.681301
##########  Ligand Polar Desolv:            12.175578
########## Ligand Apolar Desolv:            -3.388798
##########      Internal Energy:             0.000000
##########      Receptor Energy: 0.0
########## Receptor Desolvation:             0.000000
########## Receptor Hydrophobic:             0.000000
##########         Total Energy: -66.48
##########        Ligand Charge:             1.000000
##########            Arbitrary:    +999.9990
##########     heavy atom count:   25
##########           pose count:    1
##########        Ligand Energy:             0.000000
# num electro vdwattr vdwrepu polsolv apolsol rdesolv rhydroe totalscore fullpol fullapo
#   1    3.80   -1.80    0.41   -0.84   -0.13    0.00    0.00       1.45   -1.39   -0.21
#   2   -1.86   -1.31    0.27    0.29   -0.06    0.00    0.00      -2.67    0.61   -0.12
#   3    7.95   -1.34    0.17   -1.18    0.14    0.00    0.00       5.74   -2.77    0.33
#   4  -11.77   -1.44    0.28    2.22   -0.20    0.00    0.00     -10.91    5.96   -0.54
#   5    7.45   -1.20    0.25   -1.93   -0.11    0.00    0.00       4.46   -5.65   -0.32
#   6   11.22   -2.40    1.46   -3.21    1.66    0.00    0.00       8.74   -8.89    4.61
#   7  -17.13   -1.09    0.12    4.65   -1.37    0.00    0.00     -14.83   14.54   -4.29
#   8   22.63   -1.52    0.28   -6.10    0.42    0.00    0.00      15.71  -16.42    1.14
#   9  -25.46   -1.41    0.17    9.05   -1.78    0.00    0.00     -19.43   22.23   -4.38
#  10   27.13   -2.70    0.85  -10.51    0.47    0.00    0.00      15.23  -19.81    0.89
#  11  -23.56   -0.08    0.01    8.87    0.32    0.00    0.00     -14.45   16.68    0.60
#  12  -14.93   -0.05    0.00    7.49    0.28    0.00    0.00      -7.20   15.88    0.60
#  13   11.21   -1.02    0.06   -4.64    0.31    0.00    0.00       5.90  -13.18    0.87
#  14    1.47   -0.91    0.05   -0.75    0.16    0.00    0.00       0.02   -2.01    0.44
#  15   -0.82   -0.60    0.04    0.44   -0.04    0.00    0.00      -0.98    1.42   -0.13
#  16    0.95   -1.18    0.10   -0.43   -0.14    0.00    0.00      -0.68   -1.21   -0.39
#  17    0.31   -1.52    0.30   -0.39   -0.16    0.00    0.00      -1.47   -1.10   -0.45
#  18    0.55   -1.48    0.21   -0.64   -0.18    0.00    0.00      -1.55   -1.63   -0.46
#  19    0.11   -1.74    0.51   -0.31   -0.13    0.00    0.00      -1.55   -0.69   -0.29
#  20    0.21   -4.26    1.85   -0.43   -0.54    0.00    0.00      -3.16   -0.76   -0.95
#  21    0.51   -1.77    0.33   -0.46   -0.15    0.00    0.00      -1.54   -0.88   -0.29
#  22    0.66   -6.58    4.12   -0.51   -0.58    0.00    0.00      -2.89   -0.83   -0.95
#  23    1.02   -1.43    0.14   -0.52   -0.21    0.00    0.00      -0.99   -1.13   -0.45
#  24   -8.76   -0.72    0.04    3.83   -0.15    0.00    0.00      -5.76    9.45   -0.37
#  25    2.57   -1.17    0.21   -1.71   -0.09    0.00    0.00      -0.19   -3.59   -0.18
#  26    4.59   -1.96    0.71   -2.00   -0.08    0.00    0.00       1.26   -3.94   -0.16
#  27   15.32   -0.73    0.02   -4.22    0.33    0.00    0.00      10.73  -14.71    1.15
#  28   -1.72   -0.50    0.08    0.29   -0.16    0.00    0.00      -2.02    0.52   -0.28
#  29   -1.75   -1.07    0.76    0.31   -0.16    0.00    0.00      -1.90    0.54   -0.28
#  30   -2.13   -0.54    0.13    0.44   -0.11    0.00    0.00      -2.21    1.10   -0.28
#  31   -2.62   -0.86    0.68    0.26   -0.12    0.00    0.00      -2.66    0.60   -0.28
#  32   -1.82   -0.34    0.12    0.16   -0.07    0.00    0.00      -1.95    0.61   -0.28
#  33  -21.20   -0.05    0.00    4.47    0.18    0.00    0.00     -16.59   14.25    0.59
#  34   -0.53   -0.23    0.07    0.54   -0.04    0.00    0.00      -0.20    3.46   -0.28
#  35   -2.09   -0.17    0.01    0.52   -0.04    0.00    0.00      -1.76    3.04   -0.21
#  36    0.00   -0.45    0.23    1.08   -0.07    0.00    0.00       0.79    4.32   -0.28
#  37   -0.84   -0.27    0.02    0.58   -0.08    0.00    0.00      -0.58    1.95   -0.28
#  38   -2.34   -0.33    0.06    1.33   -0.09    0.00    0.00      -1.37    4.02   -0.28
#  39   -2.27   -0.41    0.09    1.14   -0.12    0.00    0.00      -1.57    2.63   -0.28
#  40   -0.42   -0.48    0.35    0.33   -0.08    0.00    0.00      -0.30    1.10   -0.28
#  41   -0.78   -0.61    0.32    0.52   -0.11    0.00    0.00      -0.65    1.26   -0.26
#  42   -2.47   -0.59    0.17    1.19   -0.11    0.00    0.00      -1.81    2.37   -0.22
#  43   -3.03   -1.09    1.40    0.86   -0.15    0.00    0.00      -2.01    1.66   -0.28
#  44   -2.73   -1.11    1.35    1.21   -0.12    0.00    0.00      -1.40    2.72   -0.27
#  45   -8.22   -0.01    0.00    0.88    0.05    0.00    0.00      -7.29    7.74    0.45

@<TRIPOS>MOLECULE
          T538080        27
   45    46     0     0     0



@<TRIPOS>ATOM
      1 C1         -2.2426    -2.9255    94.7169 C.3        1          -0.1554
      2 C2         -1.6024    -4.2354    94.2528 C.3        1           0.0705
      3 O1         -0.1813    -4.0878    94.2268 O.3        1          -0.3206
      4 C3          0.4316    -4.2676    93.0381 C.2        1           0.6348
      5 O2         -0.2246    -4.5424    92.0504 O.2        1          -0.5536
      6 N1          1.7617    -4.1437    92.9452 N.2        1          -0.5573
      7 C4          2.5509    -4.9301    93.6587 C.2        1           0.6916
      8 N2          3.9293    -4.8311    93.5964 N.pl3      1          -0.6499
      9 C5          4.6058    -4.9964    94.8055 C.cat      1           0.7713
     10 N3          5.6552    -4.2886    95.1104 N.pl3      1          -0.6826
     11 H1          5.9885    -3.6228    94.4887 H          1           0.4533
     12 H2          6.1038    -4.4271    95.9592 H          1           0.4598
     13 N4          4.0948    -5.9597    95.6638 N.pl3      1          -0.4998
     14 O3          4.9432    -6.8742    96.3339 O.3        1          -0.0896
     15 C6          5.7172    -7.6972    95.4588 C.3        1           0.0603
     16 C7          6.5785    -8.6267    96.2746 C.ar       1          -0.0961
     17 C8          6.6741    -9.9619    95.9287 C.ar       1          -0.0712
     18 C9          7.4636   -10.8154    96.6760 C.ar       1          -0.0958
     19 C10         8.1592   -10.3336    97.7706 C.ar       1          -0.0118
     20 Cl1         9.1515   -11.4050    98.7091 Cl         1          -0.0244
     21 C11         8.0639    -8.9965    98.1166 C.ar       1          -0.0360
     22 Cl2         8.9367    -8.3903    99.4893 Cl         1          -0.0289
     23 C12         7.2770    -8.1426    97.3645 C.ar       1          -0.0737
     24 C13         2.6335    -5.9916    95.8501 C.3        1           0.4028
     25 C14         2.2159    -7.3075    96.5095 C.3        1          -0.1717
     26 C15         2.1865    -4.8077    96.7099 C.3        1          -0.1710
     27 N5          2.0458    -5.8872    94.5075 N.pl3      1          -0.7297
     28 H3         -3.3267    -3.0380    94.7367 H          1           0.0709
     29 H4         -1.8845    -2.6802    95.7167 H          1           0.0704
     30 H5         -1.9730    -2.1251    94.0279 H          1           0.0891
     31 H6         -1.8722    -5.0357    94.9418 H          1           0.0741
     32 H7         -1.9606    -4.4805    93.2530 H          1           0.0736
     33 H8          4.3963    -4.6579    92.7640 H          1           0.4666
     34 H9          5.0502    -8.2820    94.8256 H          1           0.0822
     35 H10         6.3517    -7.0678    94.8348 H          1           0.0958
     36 H11         6.1311   -10.3384    95.0743 H          1           0.1451
     37 H12         7.5372   -11.8584    96.4057 H          1           0.1542
     38 H13         7.2054    -7.0986    97.6314 H          1           0.1431
     39 H14         1.1341    -7.3202    96.6422 H          1           0.0992
     40 H15         2.5139    -8.1424    95.8752 H          1           0.1084
     41 H16         2.7021    -7.3976    97.4808 H          1           0.0618
     42 H17         1.1050    -4.8415    96.8409 H          1           0.0802
     43 H18         2.6725    -4.8622    97.6841 H          1           0.1066
     44 H19         2.4637    -3.8757    96.2171 H          1           0.1034
     45 H20         1.3265    -6.4760    94.2303 H          1           0.4498
@<TRIPOS>BOND
     1    1    2 1
     2    1   28 1
     3    1   29 1
     4    1   30 1
     5    2    3 1
     6    2   31 1
     7    2   32 1
     8    3    4 1
     9    4    5 2
    10    4    6 1
    11    6    7 2
    12    7   27 1
    13    7    8 1
    14    8    9 1
    15    8   33 1
    16    9   10 2
    17    9   13 1
    18   10   11 1
    19   10   12 1
    20   13   14 1
    21   13   24 1
    22   14   15 1
    23   15   16 1
    24   15   34 1
    25   15   35 1
    26   16   23 ar
    27   16   17 ar
    28   17   18 ar
    29   17   36 1
    30   18   19 ar
    31   18   37 1
    32   19   20 1
    33   19   21 ar
    34   21   22 1
    35   21   23 ar
    36   23   38 1
    37   24   25 1
    38   24   26 1
    39   24   27 1
    40   25   39 1
    41   25   40 1
    42   25   41 1
    43   26   42 1
    44   26   43 1
    45   26   44 1
    46   27   45 1
##########                 Name:              T529546
##########          Protonation:                   22
##########               SMILES:   Cc1ccc(cc1Nc2cc[nH+]c3c2ccc(c3)c4ccc(o4)C[NH+]5CCCCC5)O
##########            Long Name:   [[7-[5-(piperidin-1-ium-1-ylmethyl)-2-furyl]quinolin-1-ium-4-yl]amino]phenol
##########          FlexRecCode: 1
##########               Number:                  226
##########   Ligand Source File: /raidb/db2/rgc/tcams/tcams-0000572.db2.gz
##########           GlobalRank: 191
##########                 Rank:                    1
##########               Setnum:                  325
##########             Matchnum:                 3665
##########                Cloud:                    1
##########        Electrostatic:           -44.838219
##########        Van der Waals:           -30.996902
##########  Ligand Polar Desolv:            13.083372
########## Ligand Apolar Desolv:            -3.714772
##########      Internal Energy:             0.000000
##########      Receptor Energy: 0.0
########## Receptor Desolvation:             0.000000
########## Receptor Hydrophobic:             0.000000
##########         Total Energy: -66.47
##########        Ligand Charge:             2.000000
##########            Arbitrary:    +999.9990
##########     heavy atom count:   31
##########           pose count:    1
##########        Ligand Energy:             0.000000
# num electro vdwattr vdwrepu polsolv apolsol rdesolv rhydroe totalscore fullpol fullapo
#   1    2.03   -1.28    0.23   -1.36   -0.11    0.00    0.00      -0.50   -2.50   -0.20
#   2    0.86   -1.57    0.30   -0.91   -0.17    0.00    0.00      -1.48   -2.22   -0.41
#   3    0.58   -1.58    0.31   -0.87   -0.21    0.00    0.00      -1.78   -1.83   -0.45
#   4    0.70   -1.60    0.22   -1.36   -0.21    0.00    0.00      -2.25   -2.97   -0.46
#   5   -0.17   -2.23    0.86    0.58   -0.12    0.00    0.00      -1.07    1.55   -0.31
#   6   -0.60   -3.83    3.82   -3.20    0.44    0.00    0.00      -3.37   -8.59    1.19
#   7    0.43   -1.82    0.71   -1.03   -0.11    0.00    0.00      -1.82   -3.05   -0.34
#   8   -0.90   -1.30    0.14    1.31   -0.22    0.00    0.00      -0.98    3.67   -0.62
#   9    8.18   -1.11    0.07   -6.18    0.32    0.00    0.00       1.28  -16.27    0.85
#  10   -4.66   -1.03    0.08    3.14   -0.24    0.00    0.00      -2.71    9.11   -0.69
#  11    2.24   -0.75    0.04   -0.98   -0.10    0.00    0.00       0.45   -3.82   -0.40
#  12    1.07   -0.99    0.15   -0.53   -0.12    0.00    0.00      -0.42   -2.02   -0.45
#  13    2.86   -1.29    0.61   -0.80   -0.11    0.00    0.00       1.27   -3.24   -0.44
#  14   -1.84   -1.02    0.28    0.28   -0.09    0.00    0.00      -2.39    1.25   -0.41
#  15    2.89   -0.64    0.04   -0.84   -0.10    0.00    0.00       1.35   -3.86   -0.45
#  16   -3.35   -0.65    0.03    1.23   -0.16    0.00    0.00      -2.90    5.58   -0.72
#  17    8.54   -0.78    0.03   -4.76    0.28    0.00    0.00       3.32  -16.45    0.97
#  18   -8.54   -0.01    0.00    2.04    0.06    0.00    0.00      -6.44   18.51    0.58
#  19   -3.50   -1.36    0.16    4.12   -0.41    0.00    0.00      -0.99    9.69   -0.96
#  20    2.95   -1.72    0.32   -3.63   -0.16    0.00    0.00      -2.24   -8.77   -0.38
#  21   -1.04   -1.15    0.26    0.00   -0.08    0.00    0.00      -2.02    0.01   -0.32
#  22    2.24   -1.26    0.29   -1.67   -0.14    0.00    0.00      -0.54   -5.85   -0.48
#  23    0.54   -1.71    0.60   -1.85   -0.13    0.00    0.00      -2.54   -6.08   -0.42
#  24    0.52   -1.35    0.39   -0.29   -0.08    0.00    0.00      -0.81   -1.06   -0.28
#  25   -0.39   -0.83    0.23    1.07   -0.11    0.00    0.00      -0.03    3.96   -0.39
#  26    8.53   -1.56    0.76   -5.11    0.10    0.00    0.00       2.71  -14.28    0.27
#  27  -17.73   -0.09    0.01    6.90    0.20    0.00    0.00     -10.71   18.28    0.54
#  28    0.36   -1.31    0.33    0.07   -0.16    0.00    0.00      -0.71    0.16   -0.37
#  29    5.29   -1.97    0.78   -2.17   -0.12    0.00    0.00       1.80   -4.41   -0.25
#  30    4.93   -1.69    0.74   -1.93   -0.11    0.00    0.00       1.94   -4.34   -0.25
#  31    4.11   -0.95    0.19   -1.73   -0.09    0.00    0.00       1.53   -4.72   -0.25
#  32    0.17   -0.54    0.04    0.18   -0.11    0.00    0.00      -0.25    0.65   -0.38
#  33    3.95   -0.95    0.15   -1.38    0.07    0.00    0.00       1.85   -5.27    0.27
#  34   -1.45   -0.43    0.08    0.81   -0.12    0.00    0.00      -1.11    1.86   -0.28
#  35   -1.54   -0.45    0.12    0.42   -0.11    0.00    0.00      -1.56    1.04   -0.28
#  36   -1.08   -0.50    0.13    1.11   -0.12    0.00    0.00      -0.44    2.40   -0.25
#  37   -1.22   -0.31    0.04    0.80   -0.11    0.00    0.00      -0.79    2.08   -0.28
#  38   -1.27   -0.36    0.06    0.59   -0.12    0.00    0.00      -1.09    1.41   -0.28
#  39   -1.61   -0.07    0.00    3.17    0.47    0.00    0.00       1.96    8.30    1.22
#  40   -0.07   -0.42    0.27    0.92   -0.05    0.00    0.00       0.65    4.22   -0.23
#  41   -7.35   -0.02    0.00    3.22    0.12    0.00    0.00      -4.03   12.13    0.44
#  42   -3.36   -0.33    0.11    1.14   -0.05    0.00    0.00      -2.48    5.19   -0.22
#  43   -4.87   -0.26    0.07    0.99   -0.05    0.00    0.00      -4.11    4.79   -0.24
#  44   -2.93   -0.11    0.00    0.81   -0.03    0.00    0.00      -2.26    7.20   -0.27
#  45   -3.91   -0.36    0.07    4.04   -0.11    0.00    0.00      -0.27   10.55   -0.28
#  46   -1.92   -0.63    0.33    1.79   -0.08    0.00    0.00      -0.51    4.18   -0.18
#  47   -1.83   -0.26    0.10    0.89   -0.05    0.00    0.00      -1.15    4.46   -0.25
#  48   -0.41   -0.57    0.54    1.82   -0.08    0.00    0.00       1.30    6.36   -0.28
#  49   -0.66   -0.10    0.00    0.78   -0.03    0.00    0.00       0.00    8.25   -0.28
#  50   -0.65   -0.42    0.19    1.91   -0.06    0.00    0.00       0.98    8.37   -0.28
#  51   -2.30   -0.59    0.57    1.64   -0.08    0.00    0.00      -0.76    5.99   -0.28
#  52   -2.32   -0.53    0.21    1.80   -0.07    0.00    0.00      -0.91    4.98   -0.20
#  53   -4.48   -1.05    1.77    0.88   -0.13    0.00    0.00      -3.01    1.83   -0.28
#  54   -3.60   -1.11    1.37    1.43   -0.15    0.00    0.00      -2.06    2.73   -0.28
#  55   -2.53   -0.41    0.14    0.59   -0.09    0.00    0.00      -2.31    1.87   -0.28
#  56   -4.14   -1.28    2.11    0.10   -0.12    0.00    0.00      -3.33    0.23   -0.28
#  57   -2.45   -0.17    0.01    0.33   -0.05    0.00    0.00      -2.32    2.04   -0.28
#  58   -3.11   -0.86    1.24    1.17   -0.11    0.00    0.00      -1.68    2.97   -0.28
#  59   -3.03   -0.13    0.01    1.02   -0.04    0.00    0.00      -2.18    7.26   -0.28
#  60   -1.98   -0.10    0.00    0.57   -0.03    0.00    0.00      -1.54    5.94   -0.28

@<TRIPOS>MOLECULE
          T529546        22
   60    64     0     0     0



@<TRIPOS>ATOM
      1 C1          8.3284    -8.8616    98.4942 C.3        1          -0.1261
      2 C2          7.7668    -9.7581    97.4210 C.ar       1          -0.0878
      3 C3          8.0982   -11.0991    97.3982 C.ar       1          -0.0760
      4 C4          7.5849   -11.9239    96.4156 C.ar       1          -0.1239
      5 C5          6.7343   -11.4075    95.4477 C.ar       1           0.1313
      6 O1          6.2305   -12.2201    94.4819 O.3        1          -0.4927
      7 C6          6.3989   -10.0632    95.4670 C.ar       1          -0.1611
      8 C7          6.9113    -9.2368    96.4582 C.ar       1           0.1090
      9 N1          6.5717    -7.8817    96.4841 N.pl3      1          -0.6027
     10 C8          5.3380    -7.4666    96.0040 C.ar       1           0.3471
     11 C9          5.1659    -7.1131    94.6446 C.ar       1          -0.1228
     12 C10         6.2363    -7.1715    93.7389 C.ar       1          -0.0446
     13 C11         6.0452    -6.8273    92.4384 C.ar       1          -0.0946
     14 C12         4.7814    -6.4107    91.9852 C.ar       1           0.0652
     15 C13         3.7072    -6.3438    92.8578 C.ar       1          -0.1323
     16 C14         3.8865    -6.6955    94.2039 C.ar       1           0.1824
     17 N2          2.8658    -6.6411    95.0691 N.ar       1          -0.5111
     18 H1          1.9945    -6.3534    94.7544 H          1           0.4450
     19 C15         3.0140    -6.9675    96.3319 C.ar       1           0.2370
     20 C16         4.2344    -7.3906    96.8400 C.ar       1          -0.2575
     21 C17         4.5972    -6.0406    90.5671 C.2        1           0.0405
     22 C18         3.4375    -5.6166    89.9969 C.2        1          -0.1586
     23 C19         3.7180    -5.3767    88.6372 C.2        1          -0.1424
     24 C20         5.0210    -5.6630    88.4462 C.2        1          -0.0731
     25 C21         5.7625    -5.5518    87.1390 C.3        1           0.0855
     26 N3          7.0577    -4.8966    87.3649 N.4        1          -0.3850
     27 H2          6.9418    -4.1438    88.0267 H          1           0.4230
     28 C22         7.5596    -4.3573    86.0954 C.3        1          -0.0156
     29 C23         8.8688    -3.6036    86.3391 C.3        1          -0.1441
     30 C24         9.9028    -4.5657    86.9310 C.3        1          -0.1413
     31 C25         9.3383    -5.1788    88.2159 C.3        1          -0.1459
     32 C26         8.0121    -5.8746    87.9010 C.3        1          -0.0078
     33 O2          5.5502    -6.0588    89.6152 O.3        1          -0.1594
     34 H3          8.9733    -9.4432    99.1529 H          1           0.0827
     35 H4          8.9072    -8.0614    98.0330 H          1           0.0859
     36 H5          7.5109    -8.4316    99.0730 H          1           0.0624
     37 H6          8.7601   -11.5034    98.1497 H          1           0.1464
     38 H7          7.8462   -12.9717    96.4003 H          1           0.1457
     39 H8          6.5206   -13.1400    94.5511 H          1           0.4036
     40 H9          5.7372    -9.6597    94.7148 H          1           0.1398
     41 H10         7.1984    -7.2313    96.8378 H          1           0.4283
     42 H11         7.2118    -7.4898    94.0756 H          1           0.1550
     43 H12         6.8727    -6.8739    91.7460 H          1           0.1583
     44 H13         2.7385    -6.0225    92.5042 H          1           0.1595
     45 H14         2.1622    -6.9080    96.9930 H          1           0.2117
     46 H15         4.3247    -7.6567    97.8829 H          1           0.1886
     47 H16         2.4856    -5.4888    90.4908 H          1           0.1729
     48 H17         3.0205    -5.0294    87.8893 H          1           0.1729
     49 H18         5.9260    -6.5481    86.7281 H          1           0.1494
     50 H19         5.1741    -4.9612    86.4366 H          1           0.1622
     51 H20         7.7366    -5.1760    85.3980 H          1           0.1337
     52 H21         6.8214    -3.6752    85.6738 H          1           0.1277
     53 H22         9.2408    -3.2055    85.3951 H          1           0.1145
     54 H23         8.6929    -2.7844    87.0363 H          1           0.0857
     55 H24        10.1171    -5.3573    86.2130 H          1           0.0848
     56 H25        10.8190    -4.0210    87.1591 H          1           0.0969
     57 H26        10.0457    -5.9067    88.6133 H          1           0.1168
     58 H27         9.1721    -4.3923    88.9519 H          1           0.0874
     59 H28         7.6082    -6.3134    88.8133 H          1           0.1331
     60 H29         8.1791    -6.6600    87.1640 H          1           0.1342
@<TRIPOS>BOND
     1    1    2 1
     2    1   34 1
     3    1   35 1
     4    1   36 1
     5    2    8 ar
     6    2    3 ar
     7    3    4 ar
     8    3   37 1
     9    4    5 ar
    10    4   38 1
    11    5    6 1
    12    5    7 ar
    13    6   39 1
    14    7    8 ar
    15    7   40 1
    16    8    9 1
    17    9   10 1
    18    9   41 1
    19   10   20 ar
    20   10   11 ar
    21   11   16 ar
    22   11   12 ar
    23   12   13 ar
    24   12   42 1
    25   13   14 ar
    26   13   43 1
    27   14   15 ar
    28   14   21 1
    29   15   16 ar
    30   15   44 1
    31   16   17 ar
    32   17   18 1
    33   17   19 ar
    34   19   20 ar
    35   19   45 1
    36   20   46 1
    37   21   33 1
    38   21   22 2
    39   22   23 1
    40   22   47 1
    41   23   24 2
    42   23   48 1
    43   24   25 1
    44   24   33 1
    45   25   26 1
    46   25   49 1
    47   25   50 1
    48   26   27 1
    49   26   32 1
    50   26   28 1
    51   28   29 1
    52   28   51 1
    53   28   52 1
    54   29   30 1
    55   29   53 1
    56   29   54 1
    57   30   31 1
    58   30   55 1
    59   30   56 1
    60   31   32 1
    61   31   57 1
    62   31   58 1
    63   32   59 1
    64   32   60 1
##########                 Name:              T541605
##########          Protonation:                   51
##########               SMILES:   C@@H](Cc1ccc(cc1)CN2CC[NH+](CC2)Cc3ccccc3)[NH2+]C[C@@H](c4cccc(c4)C(F)(F)F)O
##########            Long Name:   -1-methyl-ethyl]-[(2R)-2-hydroxy-2-[3-(trifluoromethyl)phenyl]ethyl]ammonium
##########          FlexRecCode: 1
##########               Number:                  113
##########   Ligand Source File: /raidb/db2/rgc/tcams/tcams-0002123.db2.gz
##########           GlobalRank: 192
##########                 Rank:                    1
##########               Setnum:                  171
##########             Matchnum:                 3996
##########                Cloud:                    1
##########        Electrostatic:           -39.694878
##########        Van der Waals:           -30.228987
##########  Ligand Polar Desolv:             7.445252
########## Ligand Apolar Desolv:            -3.981548
##########      Internal Energy:             0.000000
##########      Receptor Energy: 0.0
########## Receptor Desolvation:             0.000000
########## Receptor Hydrophobic:             0.000000
##########         Total Energy: -66.46
##########        Ligand Charge:             2.000000
##########            Arbitrary:    +999.9990
##########     heavy atom count:   37
##########           pose count:    1
##########        Ligand Energy:             0.000000
# num electro vdwattr vdwrepu polsolv apolsol rdesolv rhydroe totalscore fullpol fullapo
#   1    4.44   -1.31    0.25   -3.53   -0.09    0.00    0.00      -0.25   -7.10   -0.19
#   2   -0.59   -0.60    0.02    1.16   -0.09    0.00    0.00      -0.10    3.22   -0.24
#   3    2.31   -0.51    0.02   -1.11   -0.06    0.00    0.00       0.65   -3.76   -0.21
#   4    2.12   -0.58    0.02   -0.70   -0.07    0.00    0.00       0.78   -3.22   -0.33
#   5    1.29   -0.43    0.01   -0.72   -0.06    0.00    0.00       0.09   -4.60   -0.38
#   6    0.71   -0.32    0.01   -0.46   -0.05    0.00    0.00      -0.10   -3.72   -0.37
#   7    0.92   -0.37    0.01   -0.41   -0.05    0.00    0.00       0.10   -2.64   -0.34
#   8   -0.59   -0.16    0.00    0.26   -0.03    0.00    0.00      -0.51    2.57   -0.33
#   9    3.71   -0.17    0.00   -1.37    0.24    0.00    0.00       2.42  -19.12    3.38
#  10   -0.36   -0.19    0.00    0.09   -0.05    0.00    0.00      -0.50    0.80   -0.43
#  11    0.81   -0.24    0.01   -0.26   -0.05    0.00    0.00       0.26   -1.81   -0.37
#  12    2.93   -0.18    0.00   -1.32    0.03    0.00    0.00       1.46  -14.71    0.28
#  13   -2.63    0.00    0.00    0.65    0.02    0.00    0.00      -1.97   18.98    0.53
#  14   -0.39   -0.45    0.10    0.45   -0.06    0.00    0.00      -0.35    2.66   -0.36
#  15    1.65   -0.60    0.07   -0.69   -0.06    0.00    0.00       0.36   -3.50   -0.33
#  16    1.71   -0.72    0.04   -0.70   -0.13    0.00    0.00       0.21   -2.48   -0.45
#  17    1.78   -0.98    0.14   -1.13   -0.14    0.00    0.00      -0.33   -3.69   -0.47
#  18    0.21   -0.65    0.06   -0.66   -0.10    0.00    0.00      -1.14   -3.15   -0.47
#  19    0.24   -0.42    0.02   -0.63   -0.08    0.00    0.00      -0.86   -3.64   -0.47
#  20    0.24   -0.51    0.06   -0.45   -0.06    0.00    0.00      -0.72   -2.53   -0.36
#  21    0.22   -0.11    0.00   -0.11   -0.02    0.00    0.00      -0.02   -1.44   -0.33
#  22   -0.11   -0.06    0.00    0.06   -0.02    0.00    0.00      -0.14    1.22   -0.44
#  23    2.10   -1.05    0.22   -1.03   -0.11    0.00    0.00       0.12   -4.10   -0.45
#  24    2.90   -1.17    0.22   -1.16   -0.12    0.00    0.00       0.66   -4.27   -0.45
#  25   11.16   -0.77    0.04   -6.81    0.20    0.00    0.00       3.82  -20.83    0.62
#  26  -10.70   -0.01    0.00    2.34    0.04    0.00    0.00      -8.33   20.24    0.38
#  27  -11.59   -0.02    0.00    5.23    0.14    0.00    0.00      -6.25   20.93    0.56
#  28    0.71   -0.72    0.05   -0.48   -0.13    0.00    0.00      -0.57   -1.33   -0.36
#  29   -2.63   -0.79    0.08    2.37   -0.06    0.00    0.00      -1.03    5.98   -0.15
#  30   12.78   -1.27    0.28   -7.50    0.55    0.00    0.00       4.85  -21.85    1.61
#  31    2.08   -1.37    0.14   -1.26   -0.14    0.00    0.00      -0.55   -3.05   -0.34
#  32    1.32   -2.04    0.38   -0.79   -0.24    0.00    0.00      -1.38   -1.48   -0.44
#  33    1.97   -2.18    0.38   -1.85   -0.27    0.00    0.00      -1.95   -3.27   -0.47
#  34    0.62   -1.98    0.69   -1.21   -0.22    0.00    0.00      -2.09   -2.41   -0.44
#  35    1.37   -1.64    0.38   -1.68   -0.15    0.00    0.00      -1.72   -4.06   -0.37
#  36    0.44   -1.32    0.14   -0.64   -0.16    0.00    0.00      -1.54   -1.77   -0.44
#  37   -2.78   -1.18    0.20    3.03   -0.03    0.00    0.00      -0.76    6.23   -0.07
#  38    1.20   -1.05    0.12   -1.29   -0.26    0.00    0.00      -1.28   -2.19   -0.44
#  39   -0.35   -2.95    2.73   -1.26   -0.25    0.00    0.00      -2.09   -2.44   -0.48
#  40    1.34   -0.61    0.03   -1.07   -0.21    0.00    0.00      -0.52   -2.48   -0.48
#  41   -1.67   -0.58    0.32    1.50   -0.13    0.00    0.00      -0.56    3.32   -0.28
#  42   -3.01   -0.65    0.24    0.75   -0.13    0.00    0.00      -2.80    1.64   -0.28
#  43   -2.49   -0.45    0.12    1.51   -0.09    0.00    0.00      -1.41    3.36   -0.21
#  44   -1.48   -0.21    0.03    1.20   -0.05    0.00    0.00      -0.52    6.17   -0.28
#  45   -2.81   -0.14    0.00    0.34   -0.04    0.00    0.00      -2.66    2.39   -0.28
#  46   -2.66   -0.24    0.02    1.17   -0.07    0.00    0.00      -1.78    4.80   -0.28
#  47   -0.88   -0.09    0.00    0.62   -0.02    0.00    0.00      -0.38    7.72   -0.28
#  48   -0.25   -0.05    0.00    0.32   -0.01    0.00    0.00       0.01    7.18   -0.27
#  49   -0.35   -0.03    0.00    0.04   -0.01    0.00    0.00      -0.35    1.13   -0.27
#  50   -0.45   -0.07    0.00    0.28   -0.01    0.00    0.00      -0.25    3.62   -0.17
#  51   -2.49   -0.09    0.00    0.51   -0.02    0.00    0.00      -2.09    5.56   -0.20
#  52   -1.13   -0.04    0.00    0.19   -0.01    0.00    0.00      -1.00    4.63   -0.28
#  53   -2.18   -0.10    0.00    0.69   -0.02    0.00    0.00      -1.61    6.44   -0.21
#  54   -2.73   -0.10    0.00    1.00   -0.03    0.00    0.00      -1.85    9.21   -0.28
#  55   -0.52   -0.36    0.40    1.07   -0.04    0.00    0.00       0.54    6.88   -0.28
#  56   -1.41   -0.14    0.01    1.01   -0.03    0.00    0.00      -0.56    8.18   -0.28
#  57   -3.33   -0.18    0.01    1.26   -0.06    0.00    0.00      -2.30    6.09   -0.28
#  58   -3.16   -0.31    0.06    0.59   -0.09    0.00    0.00      -2.91    1.91   -0.28
#  59   -0.30   -0.12    0.01    0.12   -0.03    0.00    0.00      -0.33    0.94   -0.28
#  60   -0.24   -0.05    0.00    0.10   -0.02    0.00    0.00      -0.20    1.83   -0.28
#  61   -0.29   -0.09    0.01    0.51   -0.03    0.00    0.00       0.11    5.55   -0.28
#  62   -0.44   -0.04    0.00    0.23   -0.01    0.00    0.00      -0.26    5.73   -0.23
#  63   -0.29   -0.03    0.00    0.16   -0.01    0.00    0.00      -0.18    4.00   -0.21
#  64   -0.30   -0.02    0.00    0.08   -0.01    0.00    0.00      -0.24    3.63   -0.28
#  65   -0.18   -0.01    0.00    0.05   -0.01    0.00    0.00      -0.15    2.18   -0.28
#  66   -5.07   -0.46    0.25    0.38   -0.07    0.00    0.00      -4.96    1.56   -0.28
#  67   -5.75   -0.47    0.23    0.73   -0.08    0.00    0.00      -5.35    2.52   -0.28
#  68   -2.07   -0.31    0.03    2.12   -0.08    0.00    0.00      -0.31    6.29   -0.23
#  69   -0.83   -0.29    0.09    1.61   -0.06    0.00    0.00       0.52    7.54   -0.28
#  70   -3.00   -0.40    0.18    2.09   -0.10    0.00    0.00      -1.23    6.15   -0.28
#  71  -12.24   -0.02    0.00    4.24    0.24    0.00    0.00      -7.78   17.71    1.00
#  72   -2.43   -0.59    0.20    4.17   -0.12    0.00    0.00       1.23    8.23   -0.23
#  73   -3.42   -0.65    0.19    1.96   -0.16    0.00    0.00      -2.07    3.52   -0.28
#  74   -1.70   -0.42    0.12    0.48   -0.10    0.00    0.00      -1.63    1.14   -0.25
#  75   -0.66   -0.25    0.03    1.04   -0.07    0.00    0.00       0.10    4.44   -0.28

@<TRIPOS>MOLECULE
          T541605        51
   75    78     0     0     0



@<TRIPOS>ATOM
      1 C1          2.3998    -5.8060    96.8981 C.3        1          -0.1872
      2 C2          2.9169    -6.3542    95.5665 C.3        1           0.0311
      3 C3          2.2261    -5.6254    94.4121 C.3        1          -0.1046
      4 C4          2.7355    -6.1653    93.1007 C.ar       1          -0.1140
      5 C5          2.0994    -7.2357    92.5001 C.ar       1          -0.1358
      6 C6          2.5666    -7.7310    91.2971 C.ar       1          -0.1082
      7 C7          3.6697    -7.1557    90.6945 C.ar       1          -0.0756
      8 C8          4.1792    -7.6960    89.3831 C.3        1           0.0759
      9 N1          5.1739    -8.7462    89.6396 N.3        1          -0.5194
     10 C9          6.4598    -8.1648    90.0502 C.3        1           0.0264
     11 C10         7.0454    -7.3581    88.8892 C.3        1          -0.0528
     12 N2          7.2344    -8.2376    87.7279 N.4        1          -0.3779
     13 H1          7.8583    -8.9910    87.9750 H          1           0.4241
     14 C11         7.8131    -7.4667    86.6193 C.3        1           0.0458
     15 C12         9.2976    -7.3186    86.8314 C.ar       1          -0.1665
     16 C13         9.7903    -6.2392    87.5407 C.ar       1          -0.0933
     17 C14        11.1521    -6.1034    87.7352 C.ar       1          -0.1110
     18 C15        12.0213    -7.0472    87.2210 C.ar       1          -0.0798
     19 C16        11.5287    -8.1272    86.5124 C.ar       1          -0.1117
     20 C17        10.1665    -8.2652    86.3215 C.ar       1          -0.0981
     21 C18         5.9383    -8.7912    87.3145 C.3        1          -0.0548
     22 C19         5.3435    -9.6098    88.4625 C.3        1           0.0327
     23 C20         4.3049    -6.0845    91.2943 C.ar       1          -0.0794
     24 C21         3.8354    -5.5867    92.4954 C.ar       1          -0.0984
     25 N3          4.3681    -6.1431    95.4804 N.4        1          -0.5054
     26 H2          4.6582    -6.1900    94.5152 H          1           0.4257
     27 H3          4.5990    -5.2362    95.8573 H          1           0.4268
     28 C22         5.0610    -7.1843    96.2510 C.3        1          -0.0490
     29 C23         6.5724    -6.9645    96.1614 C.3        1           0.1390
     30 O1          6.9832    -7.0309    94.7944 O.3        1          -0.5471
     31 C24         7.2832    -8.0325    96.9520 C.ar       1          -0.1459
     32 C25         8.0994    -7.6807    98.0110 C.ar       1          -0.0763
     33 C26         8.7513    -8.6603    98.7362 C.ar       1          -0.1082
     34 C27         8.5869    -9.9919    98.4027 C.ar       1          -0.0499
     35 C28         7.7702   -10.3437    97.3446 C.ar       1          -0.1692
     36 C29         7.1147    -9.3640    96.6220 C.ar       1          -0.0514
     37 C30         7.5912   -11.7952    96.9809 C.3        1           0.5056
     38 F1          8.3455   -12.5902    97.8506 F          1          -0.1694
     39 F2          6.2396   -12.1396    97.0882 F          1          -0.1712
     40 F3          8.0226   -12.0032    95.6665 F          1          -0.1731
     41 H4          2.8920    -6.3254    97.7204 H          1           0.0864
     42 H5          2.6160    -4.7396    96.9605 H          1           0.1113
     43 H6          1.3231    -5.9628    96.9619 H          1           0.0851
     44 H7          2.7006    -7.4208    95.5040 H          1           0.1411
     45 H8          1.1494    -5.7820    94.4760 H          1           0.1256
     46 H9          2.4424    -4.5589    94.4747 H          1           0.1013
     47 H10         1.2377    -7.6851    92.9710 H          1           0.1252
     48 H11         2.0700    -8.5678    90.8283 H          1           0.1229
     49 H12         3.3482    -8.1136    88.8147 H          1           0.1044
     50 H13         4.6408    -6.8899    88.8128 H          1           0.0514
     51 H14         6.3055    -7.5092    90.9072 H          1           0.1218
     52 H15         7.1497    -8.9636    90.3225 H          1           0.1067
     53 H16         6.3616    -6.5511    88.6261 H          1           0.1276
     54 H17         8.0060    -6.9378    89.1867 H          1           0.1397
     55 H18         7.6304    -7.9885    85.6798 H          1           0.1326
     56 H19         7.3511    -6.4802    86.5827 H          1           0.1376
     57 H20         9.1111    -5.5018    87.9424 H          1           0.1306
     58 H21        11.5370    -5.2597    88.2887 H          1           0.1382
     59 H22        13.0853    -6.9409    87.3723 H          1           0.1385
     60 H23        12.2078    -8.8644    86.1104 H          1           0.1379
     61 H24         9.7813    -9.1109    85.7713 H          1           0.1287
     62 H25         5.2601    -7.9767    87.0596 H          1           0.1283
     63 H26         6.0782    -9.4332    86.4448 H          1           0.1428
     64 H27         6.0150   -10.4323    88.7086 H          1           0.1087
     65 H28         4.3749   -10.0083    88.1612 H          1           0.1278
     66 H29         5.1665    -5.6347    90.8232 H          1           0.1351
     67 H30         4.3296    -4.7476    92.9624 H          1           0.1349
     68 H31         4.7476    -7.1338    97.2937 H          1           0.1506
     69 H32         4.8116    -8.1642    95.8438 H          1           0.1385
     70 H33         6.8218    -5.9845    96.5686 H          1           0.1363
     71 H34         6.5647    -6.3706    94.2253 H          1           0.3857
     72 H35         8.2279    -6.6405    98.2715 H          1           0.1310
     73 H36         9.3895    -8.3855    99.5630 H          1           0.1464
     74 H37         9.0968   -10.7574    98.9688 H          1           0.1505
     75 H38         6.4735    -9.6392    95.7976 H          1           0.1405
@<TRIPOS>BOND
     1    1    2 1
     2    1   41 1
     3    1   42 1
     4    1   43 1
     5    2    3 1
     6    2   25 1
     7    2   44 1
     8    3    4 1
     9    3   45 1
    10    3   46 1
    11    4   24 ar
    12    4    5 ar
    13    5    6 ar
    14    5   47 1
    15    6    7 ar
    16    6   48 1
    17    7    8 1
    18    7   23 ar
    19    8    9 1
    20    8   49 1
    21    8   50 1
    22    9   22 1
    23    9   10 1
    24   10   11 1
    25   10   51 1
    26   10   52 1
    27   11   12 1
    28   11   53 1
    29   11   54 1
    30   12   13 1
    31   12   14 1
    32   12   21 1
    33   14   15 1
    34   14   55 1
    35   14   56 1
    36   15   20 ar
    37   15   16 ar
    38   16   17 ar
    39   16   57 1
    40   17   18 ar
    41   17   58 1
    42   18   19 ar
    43   18   59 1
    44   19   20 ar
    45   19   60 1
    46   20   61 1
    47   21   22 1
    48   21   62 1
    49   21   63 1
    50   22   64 1
    51   22   65 1
    52   23   24 ar
    53   23   66 1
    54   24   67 1
    55   25   26 1
    56   25   27 1
    57   25   28 1
    58   28   29 1
    59   28   68 1
    60   28   69 1
    61   29   30 1
    62   29   31 1
    63   29   70 1
    64   30   71 1
    65   31   36 ar
    66   31   32 ar
    67   32   33 ar
    68   32   72 1
    69   33   34 ar
    70   33   73 1
    71   34   35 ar
    72   34   74 1
    73   35   36 ar
    74   35   37 1
    75   36   75 1
    76   37   38 1
    77   37   39 1
    78   37   40 1
##########                 Name:              T526506
##########          Protonation:                   49
##########               SMILES:   c(cc1)C[NH+]2CC[C@@H](CC2)[NH2+]Cc3c(cccc3)c4ccc(cc4)C[NH2+]Cc5cc6c(cc5)OCO6
##########            Long Name:   [[(1-benzylpiperidin-1-ium-4-yl)ammonio]methyl]phenyl]phenyl]methyl]ammonium
##########          FlexRecCode: 1
##########               Number:                   85
##########   Ligand Source File: /raidb/db2/rgc/tcams/tcams-0000219.db2.gz
##########           GlobalRank: 193
##########                 Rank:                    1
##########               Setnum:                   76
##########             Matchnum:                 2145
##########                Cloud:                    1
##########        Electrostatic:           -44.241383
##########        Van der Waals:           -25.709267
##########  Ligand Polar Desolv:             7.442484
########## Ligand Apolar Desolv:            -3.924375
##########      Internal Energy:             0.000000
##########      Receptor Energy: 0.0
########## Receptor Desolvation:             0.000000
########## Receptor Hydrophobic:             0.000000
##########         Total Energy: -66.43
##########        Ligand Charge:             3.000000
##########            Arbitrary:    +999.9990
##########     heavy atom count:   39
##########           pose count:    1
##########        Ligand Energy:             0.000000
# num electro vdwattr vdwrepu polsolv apolsol rdesolv rhydroe totalscore fullpol fullapo
#   1   -0.63   -0.35    0.01    0.55   -0.08    0.00    0.00      -0.51    2.72   -0.42
#   2    8.76   -0.46    0.02   -5.60    0.15    0.00    0.00       2.87  -28.19    0.74
#   3   -4.14   -0.01    0.00    2.56    0.06    0.00    0.00      -1.53   25.85    0.57
#   4  -11.63   -0.01    0.00    3.06    0.07    0.00    0.00      -8.51   24.64    0.57
#   5   -0.78   -0.50    0.04    1.08   -0.10    0.00    0.00      -0.27    4.45   -0.42
#   6    1.90   -1.09    0.21   -0.98   -0.11    0.00    0.00      -0.07   -3.29   -0.37
#   7    1.16   -1.30    0.13   -0.74   -0.18    0.00    0.00      -0.92   -1.89   -0.46
#   8    1.40   -1.52    0.19   -1.94   -0.21    0.00    0.00      -2.08   -4.29   -0.47
#   9   -0.85   -1.34    0.14   -0.64   -0.13    0.00    0.00      -2.82   -1.65   -0.33
#  10    3.20   -1.16    0.11   -2.62    0.22    0.00    0.00      -0.25   -6.27    0.52
#  11   -1.93   -0.87    0.15    1.25    0.01    0.00    0.00      -1.39    3.53    0.02
#  12    1.51   -1.01    0.10   -2.26    0.17    0.00    0.00      -1.49   -6.84    0.52
#  13   -0.23   -1.40    0.31   -0.54   -0.11    0.00    0.00      -1.97   -1.62   -0.33
#  14    0.31   -1.88    1.63   -0.66   -0.13    0.00    0.00      -0.73   -2.32   -0.45
#  15    2.19   -0.61    0.05   -1.15   -0.08    0.00    0.00       0.39   -5.45   -0.37
#  16    2.00   -1.96    0.74   -1.49   -0.15    0.00    0.00      -0.86   -4.57   -0.46
#  17    1.39   -1.99    0.66   -2.02   -0.15    0.00    0.00      -2.11   -6.16   -0.46
#  18    0.13   -0.68    0.07   -0.54   -0.06    0.00    0.00      -1.09   -2.51   -0.28
#  19    0.46   -0.27    0.01   -0.71   -0.04    0.00    0.00      -0.55   -6.07   -0.37
#  20    0.54   -0.29    0.01   -0.46   -0.06    0.00    0.00      -0.26   -3.88   -0.46
#  21    0.11   -0.79    0.14   -0.11   -0.08    0.00    0.00      -0.73   -0.52   -0.37
#  22    0.17   -0.87    0.15   -1.26   -0.10    0.00    0.00      -1.92   -5.59   -0.46
#  23    0.14   -1.05    0.15   -1.61   -0.13    0.00    0.00      -2.50   -5.65   -0.47
#  24    0.28   -1.08    0.12   -2.25   -0.17    0.00    0.00      -3.09   -6.36   -0.47
#  25    0.30   -1.19    0.27   -0.91   -0.13    0.00    0.00      -1.65   -3.22   -0.45
#  26    0.57   -0.76    0.08   -0.92   -0.08    0.00    0.00      -1.12   -4.13   -0.37
#  27   -0.36   -0.50    0.05    0.65   -0.08    0.00    0.00      -0.25    2.80   -0.34
#  28    5.46   -0.26    0.01   -4.16    0.08    0.00    0.00       1.12  -31.59    0.61
#  29   -3.67    0.00    0.00    1.07    0.02    0.00    0.00      -2.59   28.15    0.49
#  30   -2.86    0.00    0.00    1.92    0.02    0.00    0.00      -0.92   29.15    0.35
#  31   -0.22   -0.26    0.01    0.51   -0.04    0.00    0.00      -0.01    3.26   -0.27
#  32    1.48   -0.15    0.00   -0.92   -0.02    0.00    0.00       0.40  -10.68   -0.22
#  33    0.16   -0.09    0.00   -0.13   -0.02    0.00    0.00      -0.09   -2.28   -0.37
#  34    3.31   -0.22    0.01   -2.37    0.03    0.00    0.00       0.76  -21.41    0.27
#  35   -4.30   -0.01    0.00    2.49    0.05    0.00    0.00      -1.77   26.09    0.54
#  36   -0.19   -0.21    0.01    0.41   -0.04    0.00    0.00      -0.02    3.47   -0.36
#  37    0.90   -0.41    0.02   -0.69   -0.05    0.00    0.00      -0.24   -4.20   -0.33
#  38    0.38   -0.33    0.02   -0.47   -0.06    0.00    0.00      -0.46   -3.73   -0.45
#  39    0.79   -0.93    0.26   -1.11   -0.09    0.00    0.00      -1.08   -5.66   -0.47
#  40    0.98   -2.79    2.17   -1.51   -0.14    0.00    0.00      -1.29   -5.14   -0.47
#  41    1.35   -1.54    0.48   -1.75   -0.15    0.00    0.00      -1.61   -5.52   -0.47
#  42    0.72   -0.73    0.06   -0.72   -0.09    0.00    0.00      -0.76   -2.84   -0.36
#  43    0.46   -0.21    0.01   -0.46   -0.04    0.00    0.00      -0.26   -3.42   -0.33
#  44    3.71   -0.49    0.05   -2.05   -0.05    0.00    0.00       1.17   -9.21   -0.24
#  45   -1.58   -0.08    0.00    0.82   -0.02    0.00    0.00      -0.85   12.13   -0.28
#  46   -3.13   -0.16    0.01    1.69   -0.05    0.00    0.00      -1.64   10.30   -0.28
#  47   -3.13   -0.14    0.00    1.18   -0.03    0.00    0.00      -2.12    9.94   -0.28
#  48   -1.19   -0.20    0.04    1.87   -0.04    0.00    0.00       0.48   11.68   -0.28
#  49   -2.94   -0.37    0.08    3.50   -0.09    0.00    0.00       0.18   10.48   -0.28
#  50   -2.26   -0.42    0.12    1.07   -0.12    0.00    0.00      -1.61    2.52   -0.28
#  51   -1.62   -0.77    1.19    0.57   -0.07    0.00    0.00      -0.72    2.18   -0.28
#  52   -0.87   -0.20    0.01    0.45   -0.05    0.00    0.00      -0.66    2.28   -0.28
#  53    0.24   -0.50    0.50    1.59   -0.06    0.00    0.00       1.77    7.68   -0.28
#  54   -6.07   -0.96    1.09    2.89   -0.11    0.00    0.00      -3.16    7.47   -0.28
#  55   -3.80   -1.22    2.46    1.63   -0.11    0.00    0.00      -1.05    3.97   -0.28
#  56   -0.23   -0.03    0.00    0.25   -0.01    0.00    0.00      -0.02    7.52   -0.25
#  57   -0.46   -0.04    0.00    0.43   -0.01    0.00    0.00      -0.08   10.22   -0.28
#  58   -0.20   -0.14    0.01    0.37   -0.04    0.00    0.00       0.00    2.65   -0.28
#  59   -0.26   -0.38    0.22    0.19   -0.07    0.00    0.00      -0.29    0.78   -0.28
#  60   -0.43   -0.30    0.05    0.71   -0.09    0.00    0.00      -0.06    2.22   -0.28
#  61   -0.64   -0.68    0.70    2.42   -0.07    0.00    0.00       1.73    9.88   -0.28
#  62   -2.44   -0.18    0.01    2.28   -0.04    0.00    0.00      -0.35   12.84   -0.21
#  63   -2.84   -0.25    0.05    2.06   -0.03    0.00    0.00      -1.02   10.48   -0.17
#  64   -3.39   -0.11    0.00    1.47   -0.03    0.00    0.00      -2.05   13.48   -0.28
#  65   -0.75   -0.03    0.00    0.33   -0.01    0.00    0.00      -0.46    9.55   -0.21
#  66   -1.26   -0.06    0.00    0.47   -0.02    0.00    0.00      -0.86    7.87   -0.28
#  67   -0.59   -0.02    0.00    0.30   -0.01    0.00    0.00      -0.31   12.08   -0.22
#  68   -0.64   -0.02    0.00    0.23   -0.01    0.00    0.00      -0.43    8.98   -0.28
#  69   -0.46   -0.12    0.02    1.20   -0.03    0.00    0.00       0.61   11.16   -0.28
#  70   -0.26   -0.04    0.00    0.37   -0.01    0.00    0.00       0.06    8.61   -0.27
#  71   -0.27   -0.03    0.00    0.18   -0.01    0.00    0.00      -0.12    7.01   -0.28
#  72   -0.70   -0.14    0.02    0.20   -0.04    0.00    0.00      -0.65    1.58   -0.28
#  73   -2.29   -1.49    2.66    0.28   -0.11    0.00    0.00      -0.95    0.74   -0.28
#  74   -1.94   -0.36    0.11    0.77   -0.07    0.00    0.00      -1.49    2.89   -0.28
#  75   -0.77   -0.15    0.01    1.35   -0.04    0.00    0.00       0.41   10.17   -0.28
#  76   -1.24   -0.04    0.00    0.45   -0.01    0.00    0.00      -0.84   12.15   -0.23
#  77   -2.49   -0.07    0.00    0.39   -0.01    0.00    0.00      -2.19    5.55   -0.20
#  78   -3.49   -0.24    0.04    1.69   -0.06    0.00    0.00      -2.06    7.51   -0.28
#  79   -4.27   -0.29    0.09    1.97   -0.06    0.00    0.00      -2.56    9.38   -0.28

@<TRIPOS>MOLECULE
          T526506        49
   79    84     0     0     0



@<TRIPOS>ATOM
      1 C1          2.7420    -6.3473    92.5695 C.3        1           0.0380
      2 N1          3.8632    -6.9470    93.3050 N.4        1          -0.5110
      3 H1          4.0144    -7.8895    92.9778 H          1           0.4286
      4 H2          4.6971    -6.4000    93.1516 H          1           0.4289
      5 C2          3.5506    -6.9712    94.7402 C.3        1           0.0549
      6 C3          4.7008    -7.5864    95.4946 C.ar       1          -0.1733
      7 C4          5.1547    -6.9975    96.6603 C.ar       1          -0.0752
      8 C5          6.2098    -7.5577    97.3567 C.ar       1          -0.1028
      9 C6          6.8139    -8.7109    96.8864 C.ar       1           0.0826
     10 O1          7.8479    -9.4631    97.3577 O.3        1          -0.2938
     11 C7          8.3168   -10.2498    96.2524 C.3        1           0.2105
     12 O2          7.1172   -10.4111    95.4808 O.3        1          -0.2988
     13 C8          6.3566    -9.3045    95.7116 C.ar       1           0.0410
     14 C9          5.2963    -8.7417    95.0224 C.ar       1          -0.0806
     15 C10         3.0626    -6.3227    91.0972 C.ar       1          -0.1493
     16 C11         3.7114    -5.2298    90.5516 C.ar       1          -0.0809
     17 C12         4.0077    -5.2018    89.2038 C.ar       1          -0.1076
     18 C13         3.6519    -6.2775    88.3926 C.ar       1          -0.0422
     19 C14         2.9986    -7.3759    88.9476 C.ar       1          -0.1206
     20 C15         2.7124    -7.3956    90.2977 C.ar       1          -0.0846
     21 C16         3.9674    -6.2530    86.9428 C.ar       1          -0.0418
     22 C17         2.9416    -6.3289    86.0025 C.ar       1          -0.0918
     23 C18         3.2408    -6.3052    84.6556 C.ar       1          -0.0701
     24 C19         4.5565    -6.2065    84.2382 C.ar       1          -0.0986
     25 C20         5.5779    -6.1310    85.1669 C.ar       1          -0.0836
     26 C21         5.2897    -6.1482    86.5168 C.ar       1          -0.1606
     27 C22         6.4038    -6.0597    87.5277 C.3        1           0.0313
     28 N2          6.8753    -7.4117    87.8563 N.4        1          -0.5143
     29 H3          6.1133    -7.9492    88.2416 H          1           0.4318
     30 H4          7.2151    -7.8620    87.0199 H          1           0.4165
     31 C23         7.9612    -7.3255    88.8419 C.3        1           0.0140
     32 C24         8.7710    -8.6252    88.8264 C.3        1          -0.1692
     33 C25         7.8693    -9.7866    89.2499 C.3        1          -0.0257
     34 N3          7.3564    -9.5442    90.6036 N.4        1          -0.3853
     35 H5          8.1307    -9.4186    91.2382 H          1           0.4344
     36 C26         6.5535   -10.6963    91.0351 C.3        1           0.0437
     37 C27         7.4679   -11.7971    91.5075 C.ar       1          -0.1760
     38 C28         7.9315   -12.7426    90.6119 C.ar       1          -0.0895
     39 C29         8.7701   -13.7523    91.0452 C.ar       1          -0.1070
     40 C30         9.1457   -13.8163    92.3740 C.ar       1          -0.0732
     41 C31         8.6829   -12.8704    93.2694 C.ar       1          -0.1109
     42 C32         7.8475   -11.8581    92.8352 C.ar       1          -0.1033
     43 C33         6.5196    -8.3384    90.6106 C.3        1          -0.0329
     44 C34         7.3693    -7.1211    90.2395 C.3        1          -0.1644
     45 H6          1.8412    -6.9383    92.7352 H          1           0.1426
     46 H7          2.5786    -5.3292    92.9229 H          1           0.1428
     47 H8          3.3871    -5.9532    95.0936 H          1           0.1425
     48 H9          2.6498    -7.5622    94.9058 H          1           0.1444
     49 H10         4.6841    -6.0976    97.0277 H          1           0.1464
     50 H11         6.5627    -7.0956    98.2668 H          1           0.1523
     51 H12         9.0764    -9.7119    95.6851 H          1           0.1487
     52 H13         8.6948   -11.2140    96.5923 H          1           0.0993
     53 H14         4.9369    -9.2024    94.1140 H          1           0.1434
     54 H15         3.9864    -4.3964    91.1812 H          1           0.1440
     55 H16         4.5139    -4.3478    88.7787 H          1           0.1438
     56 H17         2.7203    -8.2120    88.3233 H          1           0.1418
     57 H18         2.2101    -8.2485    90.7298 H          1           0.1435
     58 H19         1.9147    -6.4066    86.3275 H          1           0.1400
     59 H20         2.4467    -6.3644    83.9260 H          1           0.1470
     60 H21         4.7863    -6.1882    83.1831 H          1           0.1460
     61 H22         6.6030    -6.0545    84.8354 H          1           0.1377
     62 H23         7.2270    -5.4790    87.1114 H          1           0.1457
     63 H24         6.0367    -5.5732    88.4314 H          1           0.1471
     64 H25         8.6117    -6.4865    88.5953 H          1           0.1688
     65 H26         9.1494    -8.8063    87.8204 H          1           0.1391
     66 H27         9.6070    -8.5414    89.5209 H          1           0.1420
     67 H28         7.0339    -9.8698    88.5548 H          1           0.1228
     68 H29         8.4428   -10.7136    89.2398 H          1           0.1632
     69 H30         5.8954   -10.3957    91.8504 H          1           0.1377
     70 H31         5.9545   -11.0555    90.1983 H          1           0.1474
     71 H32         7.6380   -12.6924    89.5736 H          1           0.1337
     72 H33         9.1317   -14.4914    90.3455 H          1           0.1420
     73 H34         9.8003   -14.6057    92.7126 H          1           0.1419
     74 H35         8.9759   -12.9206    94.3076 H          1           0.1394
     75 H36         7.4889   -11.1170    93.5341 H          1           0.1270
     76 H37         5.7129    -8.4523    89.8863 H          1           0.1218
     77 H38         6.0965    -8.1959    91.6049 H          1           0.1617
     78 H39         8.1762    -7.0061    90.9632 H          1           0.1408
     79 H40         6.7458    -6.2271    90.2434 H          1           0.1344
@<TRIPOS>BOND
     1    1    2 1
     2    1   15 1
     3    1   45 1
     4    1   46 1
     5    2    3 1
     6    2    4 1
     7    2    5 1
     8    5    6 1
     9    5   47 1
    10    5   48 1
    11    6   14 ar
    12    6    7 ar
    13    7    8 ar
    14    7   49 1
    15    8    9 ar
    16    8   50 1
    17    9   13 ar
    18    9   10 1
    19   10   11 1
    20   11   12 1
    21   11   51 1
    22   11   52 1
    23   12   13 1
    24   13   14 ar
    25   14   53 1
    26   15   20 ar
    27   15   16 ar
    28   16   17 ar
    29   16   54 1
    30   17   18 ar
    31   17   55 1
    32   18   19 ar
    33   18   21 1
    34   19   20 ar
    35   19   56 1
    36   20   57 1
    37   21   26 ar
    38   21   22 ar
    39   22   23 ar
    40   22   58 1
    41   23   24 ar
    42   23   59 1
    43   24   25 ar
    44   24   60 1
    45   25   26 ar
    46   25   61 1
    47   26   27 1
    48   27   28 1
    49   27   62 1
    50   27   63 1
    51   28   29 1
    52   28   30 1
    53   28   31 1
    54   31   44 1
    55   31   32 1
    56   31   64 1
    57   32   33 1
    58   32   65 1
    59   32   66 1
    60   33   34 1
    61   33   67 1
    62   33   68 1
    63   34   35 1
    64   34   36 1
    65   34   43 1
    66   36   37 1
    67   36   69 1
    68   36   70 1
    69   37   42 ar
    70   37   38 ar
    71   38   39 ar
    72   38   71 1
    73   39   40 ar
    74   39   72 1
    75   40   41 ar
    76   40   73 1
    77   41   42 ar
    78   41   74 1
    79   42   75 1
    80   43   44 1
    81   43   76 1
    82   43   77 1
    83   44   78 1
    84   44   79 1
##########                 Name:              T531143
##########          Protonation:                   89
##########               SMILES:   c1ccc2c(c1)[nH]c(=[NH+]CCC[NH2+]Cc3cc4c(cc(cc4[nH]3)C(F)(F)F)C(F)(F)F)[nH]2
##########            Long Name:   dol-2-yl]methyl-[3-(1,3-dihydrobenzimidazol-2-ylideneammonio)propyl]ammonium
##########          FlexRecCode: 1
##########               Number:                  262
##########   Ligand Source File: /raidb/db2/rgc/tcams/tcams-0000798.db2.gz
##########           GlobalRank: 195
##########                 Rank:                    1
##########               Setnum:                  170
##########             Matchnum:                 6312
##########                Cloud:                    1
##########        Electrostatic:           -51.317345
##########        Van der Waals:           -23.403603
##########  Ligand Polar Desolv:            11.513679
########## Ligand Apolar Desolv:            -3.200876
##########      Internal Energy:             0.000000
##########      Receptor Energy: 0.0
########## Receptor Desolvation:             0.000000
########## Receptor Hydrophobic:             0.000000
##########         Total Energy: -66.41
##########        Ligand Charge:             2.000000
##########            Arbitrary:    +999.9990
##########     heavy atom count:   32
##########           pose count:    1
##########        Ligand Energy:             0.000000
# num electro vdwattr vdwrepu polsolv apolsol rdesolv rhydroe totalscore fullpol fullapo
#   1    2.16   -0.99    0.26   -0.74   -0.17    0.00    0.00       0.52   -2.07   -0.48
#   2   -4.31   -0.90    0.12    2.27   -0.03    0.00    0.00      -2.85    5.68   -0.07
#   3    0.97   -1.46    0.72   -1.09   -0.22    0.00    0.00      -1.09   -2.21   -0.45
#   4    1.59   -0.68    0.05   -0.77   -0.19    0.00    0.00       0.00   -1.85   -0.45
#   5    0.68   -1.21    0.17   -1.06   -0.12    0.00    0.00      -1.53   -3.41   -0.38
#   6    0.26   -1.21    0.14   -0.44   -0.14    0.00    0.00      -1.38   -1.34   -0.41
#   7    1.28   -1.10    0.12   -0.90   -0.12    0.00    0.00      -0.72   -2.82   -0.37
#   8    0.71   -0.89    0.10   -0.46   -0.11    0.00    0.00      -0.66   -1.77   -0.42
#   9    2.49   -0.73    0.06   -1.76   -0.12    0.00    0.00      -0.06   -7.31   -0.50
#  10   -0.04   -0.55    0.03    1.18   -0.14    0.00    0.00       0.48    5.97   -0.71
#  11   -1.59   -0.45    0.05    0.94   -0.09    0.00    0.00      -1.14    4.57   -0.44
#  12   18.21   -1.85    1.41   -7.53    0.21    0.00    0.00      10.44  -26.41    0.73
#  13  -15.44   -0.04    0.00    7.21    0.17    0.00    0.00      -8.09   24.49    0.57
#  14  -23.82   -0.16    0.05    7.43    0.17    0.00    0.00     -16.34   24.92    0.57
#  15    0.14   -0.50    0.07    0.07   -0.08    0.00    0.00      -0.30    0.33   -0.40
#  16    4.64   -0.84    0.19   -2.32   -0.06    0.00    0.00       1.60   -8.65   -0.24
#  17   -1.66   -0.30    0.01    0.49   -0.07    0.00    0.00      -1.52    2.88   -0.41
#  18   12.75   -0.67    0.03   -7.47    0.46    0.00    0.00       5.09  -26.90    1.64
#  19  -10.60   -0.01    0.00    4.49    0.12    0.00    0.00      -6.00   21.44    0.57
#  20  -10.21   -0.69    0.04    7.33   -1.32    0.00    0.00      -4.85   27.47   -4.95
#  21    4.92   -0.45    0.01   -4.04    0.22    0.00    0.00       0.66  -21.35    1.16
#  22   -0.35   -0.53    0.02    0.66   -0.19    0.00    0.00      -0.40    2.68   -0.77
#  23    0.08   -0.60    0.06   -0.60   -0.11    0.00    0.00      -1.17   -2.70   -0.48
#  24   -0.04   -0.85    0.19   -0.72   -0.10    0.00    0.00      -1.53   -3.33   -0.47
#  25    0.05   -0.88    0.14   -0.81   -0.12    0.00    0.00      -1.63   -3.26   -0.47
#  26    0.62   -1.54    0.63   -0.91   -0.15    0.00    0.00      -1.36   -2.99   -0.48
#  27   -0.74   -1.16    0.32    0.68   -0.23    0.00    0.00      -1.13    2.26   -0.77
#  28   11.56   -1.84    0.93   -7.26    0.42    0.00    0.00       3.81  -21.04    1.21
#  29    5.24   -0.52    0.04   -3.25    0.19    0.00    0.00       1.70  -18.80    1.12
#  30   -0.75   -0.91    0.17    0.48   -0.18    0.00    0.00      -1.18    2.16   -0.78
#  31    0.15   -1.18    0.32   -0.04   -0.11    0.00    0.00      -0.86   -0.15   -0.44
#  32   -7.60   -0.79    0.06    2.87   -0.02    0.00    0.00      -5.49    7.27   -0.06
#  33    2.35   -0.77    0.05   -1.17   -0.22    0.00    0.00       0.24   -2.35   -0.44
#  34    3.80   -0.98    0.16   -1.17   -0.21    0.00    0.00       1.60   -2.69   -0.48
#  35    2.34   -0.69    0.05   -1.09   -0.20    0.00    0.00       0.41   -2.66   -0.48
#  36   -1.33   -0.22    0.01    0.20   -0.05    0.00    0.00      -1.38    0.91   -0.23
#  37   -4.72   -0.16    0.01    0.86   -0.04    0.00    0.00      -4.05    6.05   -0.28
#  38   -1.91   -0.06    0.00    0.62   -0.02    0.00    0.00      -1.37   10.82   -0.28
#  39   -4.14   -0.15    0.01    1.64   -0.04    0.00    0.00      -2.69   10.51   -0.28
#  40   -3.00   -0.10    0.01    1.04   -0.03    0.00    0.00      -2.08    9.76   -0.28
#  41   -2.00   -0.06    0.00    0.52   -0.02    0.00    0.00      -1.56    9.35   -0.28
#  42   -3.08   -0.30    0.06    1.40   -0.07    0.00    0.00      -1.99    5.99   -0.28
#  43   -4.01   -0.68    0.53    1.98   -0.09    0.00    0.00      -2.27    6.30   -0.28
#  44   -1.50   -0.06    0.00    0.41   -0.02    0.00    0.00      -1.17    6.64   -0.28
#  45   -1.16   -0.05    0.00    0.33   -0.01    0.00    0.00      -0.90    6.46   -0.28
#  46   -4.00   -0.01    0.00    1.44    0.04    0.00    0.00      -2.52   19.91    0.57
#  47    0.05   -0.11    0.01    0.63   -0.04    0.00    0.00       0.55    4.95   -0.28
#  48    0.21   -0.26    0.14    0.48   -0.05    0.00    0.00       0.52    2.77   -0.28
#  49   -0.07   -0.14    0.01    0.34   -0.04    0.00    0.00       0.10    2.45   -0.28
#  50   -1.38   -0.76    1.29    1.23   -0.09    0.00    0.00       0.30    3.85   -0.28
#  51  -15.82   -0.09    0.01    6.15    0.21    0.00    0.00      -9.54   17.61    0.59
#  52   -2.73    0.00    0.00    1.20    0.04    0.00    0.00      -1.50   18.45    0.59
#  53   -0.54   -0.18    0.03    0.58   -0.04    0.00    0.00      -0.14    4.24   -0.27

@<TRIPOS>MOLECULE
          T531143        89
   53    56     0     0     0



@<TRIPOS>ATOM
      1 F1          7.7635   -13.0460    93.9430 F          1          -0.1664
      2 C1          7.8771   -12.2414    95.0820 C.3        1           0.5115
      3 F2          7.2108   -12.8500    96.1511 F          1          -0.1697
      4 F3          9.2284   -12.0799    95.4060 F          1          -0.1638
      5 C2          7.2615   -10.8934    94.8083 C.ar       1          -0.1405
      6 C3          7.2639    -9.9226    95.8007 C.ar       1          -0.0378
      7 C4          6.7110    -8.6944    95.5713 C.ar       1          -0.1242
      8 C5          6.1389    -8.4128    94.3292 C.ar       1          -0.0619
      9 C6          5.4776    -7.2383    93.7556 C.2        1          -0.1214
     10 C7          5.1290    -7.5585    92.4994 C.2        1           0.0025
     11 C8          4.4198    -6.6405    91.5376 C.3        1           0.0709
     12 N1          5.4112    -5.8776    90.7675 N.4        1          -0.5124
     13 H1          4.9363    -5.2629    90.1235 H          1           0.4364
     14 H2          5.9785    -5.3309    91.3979 H          1           0.4299
     15 C9          6.2681    -6.8054    90.0173 C.3        1          -0.0062
     16 C10         7.3007    -6.0109    89.2152 C.3        1          -0.1686
     17 C11         8.1931    -6.9772    88.4339 C.3        1           0.0996
     18 N2          9.1818    -6.2164    87.6659 N.pl3      1          -0.6570
     19 H3          8.8893    -5.5760    86.9986 H          1           0.4444
     20 C12        10.4573    -6.4005    87.8797 C.cat      1           0.6646
     21 N3         10.9969    -7.2768    88.7869 N.pl3      1          -0.5777
     22 C13        12.3858    -7.1781    88.7139 C.ar       1           0.0768
     23 C14        13.4120    -7.8200    89.3916 C.ar       1          -0.0848
     24 C15        14.7271    -7.5113    89.1027 C.ar       1          -0.0738
     25 C16        15.0253    -6.5631    88.1397 C.ar       1          -0.0732
     26 C17        14.0103    -5.9184    87.4601 C.ar       1          -0.0834
     27 C18        12.6865    -6.2226    87.7426 C.ar       1           0.0800
     28 N4         11.4776    -5.7534    87.2299 N.pl3      1          -0.5765
     29 N5          5.5130    -8.8422    92.2217 N.pl3      1          -0.5788
     30 C19         6.1339    -9.3930    93.3203 C.ar       1           0.1161
     31 C20         6.7071   -10.6351    93.5740 C.ar       1          -0.0380
     32 C21         6.7183    -7.6476    96.6553 C.3        1           0.5118
     33 F4          7.3413    -8.1628    97.7971 F          1          -0.1648
     34 F5          7.4181    -6.5207    96.2107 F          1          -0.1730
     35 F6          5.4023    -7.2873    96.9645 F          1          -0.1689
     36 H4          7.7059   -10.1400    96.7617 H          1           0.1646
     37 H5          5.3030    -6.2939    94.2498 H          1           0.1688
     38 H6          3.8069    -7.2309    90.8566 H          1           0.1487
     39 H7          3.7841    -5.9519    92.0943 H          1           0.1638
     40 H8          6.7811    -7.4694    90.7131 H          1           0.1430
     41 H9          5.6553    -7.3961    89.3363 H          1           0.1459
     42 H10         6.7877    -5.3469    88.5196 H          1           0.1103
     43 H11         7.9135    -5.4203    89.8962 H          1           0.1083
     44 H12         8.7061    -7.6412    89.1297 H          1           0.1060
     45 H13         7.5802    -7.5678    87.7529 H          1           0.1069
     46 H14        10.4984    -7.8631    89.3773 H          1           0.4540
     47 H15        13.1833    -8.5600    90.1444 H          1           0.1503
     48 H16        15.5255    -8.0113    89.6307 H          1           0.1577
     49 H17        16.0556    -6.3263    87.9190 H          1           0.1580
     50 H18        14.2468    -5.1786    86.7097 H          1           0.1517
     51 H19        11.3758    -5.0837    86.5358 H          1           0.4586
     52 H20         5.3693    -9.2964    91.3767 H          1           0.4266
     53 H21         6.7142   -11.3954    92.8070 H          1           0.1552
@<TRIPOS>BOND
     1    1    2 1
     2    2    3 1
     3    2    4 1
     4    2    5 1
     5    5   31 ar
     6    5    6 ar
     7    6    7 ar
     8    6   36 1
     9    7    8 ar
    10    7   32 1
    11    8   30 ar
    12    8    9 1
    13    9   10 2
    14    9   37 1
    15   10   11 1
    16   10   29 1
    17   11   12 1
    18   11   38 1
    19   11   39 1
    20   12   13 1
    21   12   14 1
    22   12   15 1
    23   15   16 1
    24   15   40 1
    25   15   41 1
    26   16   17 1
    27   16   42 1
    28   16   43 1
    29   17   18 1
    30   17   44 1
    31   17   45 1
    32   18   19 1
    33   18   20 2
    34   20   28 1
    35   20   21 1
    36   21   22 1
    37   21   46 1
    38   22   27 ar
    39   22   23 ar
    40   23   24 ar
    41   23   47 1
    42   24   25 ar
    43   24   48 1
    44   25   26 ar
    45   25   49 1
    46   26   27 ar
    47   26   50 1
    48   27   28 1
    49   28   51 1
    50   29   30 1
    51   29   52 1
    52   30   31 ar
    53   31   53 1
    54   32   33 1
    55   32   34 1
    56   32   35 1
##########                 Name:              T536606
##########          Protonation:                   89
##########               SMILES:   c1cc2c(cc1)O[C@@]3(C[NH+](C2)CC4CC4)CC[NH+](CC3)Cc5c6c([nH]c5)cncc6
##########            Long Name:   3-ylmethyl)spiro[4,5-dihydro-3H-1,4-benzoxazepin-4-ium-2,4'-piperidin-1-ium]
##########          FlexRecCode: 1
##########               Number:                  106
##########   Ligand Source File: /raidb/db2/rgc/tcams/tcams-0001499.db2.gz
##########           GlobalRank: 195
##########                 Rank:                    1
##########               Setnum:                   48
##########             Matchnum:                 5449
##########                Cloud:                    1
##########        Electrostatic:           -42.222984
##########        Van der Waals:           -25.115326
##########  Ligand Polar Desolv:             4.375041
########## Ligand Apolar Desolv:            -3.451397
##########      Internal Energy:             0.000000
##########      Receptor Energy: 0.0
########## Receptor Desolvation:             0.000000
########## Receptor Hydrophobic:             0.000000
##########         Total Energy: -66.41
##########        Ligand Charge:             2.000000
##########            Arbitrary:    +999.9990
##########     heavy atom count:   30
##########           pose count:    1
##########        Ligand Energy:             0.000000
# num electro vdwattr vdwrepu polsolv apolsol rdesolv rhydroe totalscore fullpol fullapo
#   1   -0.39   -0.60    0.06    0.54   -0.11    0.00    0.00      -0.50    1.84   -0.37
#   2    4.80   -0.79    0.06   -1.84   -0.14    0.00    0.00       2.09   -4.53   -0.34
#   3    3.51   -1.40    0.26   -2.93   -0.22    0.00    0.00      -0.78   -5.85   -0.43
#   4    3.42   -1.81    0.80   -3.26   -0.21    0.00    0.00      -1.06   -6.65   -0.43
#   5    4.94   -0.56    0.04   -3.79    0.06    0.00    0.00       0.69  -15.50    0.24
#   6   -5.21   -0.02    0.00    3.70    0.07    0.00    0.00      -1.46   20.61    0.39
#   7   -0.74   -0.71    0.09    0.58   -0.12    0.00    0.00      -0.90    1.72   -0.36
#   8    3.69   -0.87    0.05   -1.92   -0.10    0.00    0.00       0.84   -5.67   -0.30
#   9    1.62   -1.55    0.21   -1.16   -0.19    0.00    0.00      -1.07   -2.67   -0.45
#  10    2.75   -2.45    0.75   -2.40   -0.22    0.00    0.00      -1.57   -5.06   -0.47
#  11    1.53   -1.51    0.23   -1.30   -0.19    0.00    0.00      -1.23   -3.24   -0.47
#  12    2.41   -0.81    0.04   -1.42   -0.11    0.00    0.00       0.11   -4.74   -0.37
#  13   -1.26   -0.79    0.08    1.25   -0.04    0.00    0.00      -0.77    5.15   -0.18
#  14    1.10   -0.92    0.29   -2.77    0.17    0.00    0.00      -2.15  -12.71    0.77
#  15   -0.79   -0.29    0.01    0.70   -0.01    0.00    0.00      -0.37    4.59   -0.04
#  16    0.46   -0.29    0.03   -1.30   -0.02    0.00    0.00      -1.12   -9.55   -0.16
#  17    0.08   -0.33    0.05   -0.11   -0.05    0.00    0.00      -0.37   -0.80   -0.36
#  18    6.03   -0.32    0.01   -2.37    0.04    0.00    0.00       3.39  -15.86    0.27
#  19   -6.09    0.00    0.00    1.26    0.03    0.00    0.00      -4.81   22.59    0.54
#  20   -1.52   -0.34    0.02    0.79   -0.07    0.00    0.00      -1.12    4.14   -0.39
#  21    4.37   -0.95    0.21   -1.79   -0.09    0.00    0.00       1.76   -7.53   -0.36
#  22   -3.22   -2.32    1.91    1.35   -0.29    0.00    0.00      -2.58    4.56   -0.99
#  23    8.65   -2.41    1.67   -4.89    0.36    0.00    0.00       3.38  -15.85    1.17
#  24   -0.29   -1.37    0.49   -0.04   -0.22    0.00    0.00      -1.43   -0.14   -0.80
#  25   -0.89   -1.16    0.13    0.18   -0.33    0.00    0.00      -2.07    0.53   -0.98
#  26    2.45   -1.50    0.24   -2.92    0.73    0.00    0.00      -1.00   -8.12    2.04
#  27   -0.44   -1.51    0.42   -0.14   -0.30    0.00    0.00      -1.96   -0.47   -0.97
#  28    0.67   -0.87    0.18   -0.51   -0.09    0.00    0.00      -0.61   -2.28   -0.39
#  29    0.49   -0.89    0.16   -0.37   -0.08    0.00    0.00      -0.69   -1.61   -0.36
#  30    0.40   -0.53    0.09   -0.19   -0.06    0.00    0.00      -0.28   -0.90   -0.28
#  31    2.40   -0.38    0.02   -1.11   -0.04    0.00    0.00       0.88   -5.33   -0.21
#  32    0.18   -0.27    0.01   -0.38   -0.05    0.00    0.00      -0.50   -2.20   -0.28
#  33   -1.26   -0.28    0.13    1.52   -0.05    0.00    0.00       0.06    8.58   -0.26
#  34   -2.78   -0.18    0.01    1.20   -0.05    0.00    0.00      -1.80    6.60   -0.28
#  35   -3.27   -0.36    0.18    1.24   -0.05    0.00    0.00      -2.27    4.97   -0.22
#  36   -1.84   -1.05    1.42    1.88   -0.13    0.00    0.00       0.29    4.16   -0.28
#  37   -2.63   -0.36    0.04    0.59   -0.11    0.00    0.00      -2.47    1.48   -0.28
#  38   -2.88   -0.72    0.47    0.35   -0.12    0.00    0.00      -2.90    0.84   -0.28
#  39   -2.59   -0.87    0.73    1.19   -0.12    0.00    0.00      -1.67    2.79   -0.28
#  40   -4.85   -0.49    0.36    1.93   -0.09    0.00    0.00      -3.14    6.11   -0.27
#  41   -2.15   -0.24    0.02    1.65   -0.06    0.00    0.00      -0.77    5.58   -0.19
#  42   -4.54   -0.49    0.15    1.89   -0.12    0.00    0.00      -3.10    4.48   -0.28
#  43   -4.22   -1.49    1.94    1.04   -0.14    0.00    0.00      -2.87    2.04   -0.28
#  44   -3.69   -0.51    0.22    0.93   -0.08    0.00    0.00      -3.14    3.06   -0.28
#  45   -2.26   -0.13    0.01    0.71   -0.03    0.00    0.00      -1.70    6.29   -0.24
#  46   -0.03   -0.17    0.05    0.63   -0.02    0.00    0.00       0.46    5.05   -0.18
#  47   -0.40   -0.04    0.00    0.40   -0.01    0.00    0.00      -0.05    9.98   -0.28
#  48   -0.33   -0.21    0.06    0.71   -0.02    0.00    0.00       0.21    5.01   -0.13
#  49   -0.34   -0.07    0.01    0.68   -0.02    0.00    0.00       0.25    9.03   -0.28
#  50   -1.59   -0.05    0.00    0.26   -0.01    0.00    0.00      -1.39    5.98   -0.28
#  51   -3.64   -0.18    0.02    1.75   -0.05    0.00    0.00      -2.10    9.46   -0.28
#  52   -6.39   -0.59    0.44    3.09   -0.08    0.00    0.00      -3.53   10.26   -0.28
#  53   -7.29   -0.04    0.00    2.88    0.15    0.00    0.00      -4.29   11.44    0.59
#  54   -1.21   -0.20    0.01    0.36   -0.06    0.00    0.00      -1.10    1.73   -0.28
#  55   -1.21   -0.35    0.07    0.79   -0.08    0.00    0.00      -0.78    2.66   -0.28
#  56   -0.49   -0.10    0.01    0.62   -0.02    0.00    0.00       0.02    6.94   -0.24
#  57   -3.19   -0.12    0.01    0.60   -0.03    0.00    0.00      -2.73    5.43   -0.24
#  58   -6.46   -0.60    0.75    0.86   -0.03    0.00    0.00      -5.49    3.85   -0.15
#  59   -1.88   -0.13    0.01    1.16   -0.04    0.00    0.00      -0.87    8.24   -0.28
#  60   -3.14   -0.14    0.01    0.64   -0.04    0.00    0.00      -2.68    4.15   -0.28
#  61   -0.27   -0.08    0.00    0.94   -0.02    0.00    0.00       0.56   11.46   -0.26
#  62   -0.55   -0.06    0.00    0.45   -0.02    0.00    0.00      -0.18    6.94   -0.26

@<TRIPOS>MOLECULE
          T536606        89
   62    67     0     0     0



@<TRIPOS>ATOM
      1 C1          0.5213    -5.1604    92.7472 C.3        1           0.0244
      2 C2         -0.6922    -4.3441    93.1968 C.3        1          -0.2230
      3 C3         -0.8416    -2.9305    92.6311 C.3        1          -0.1650
      4 C4         -0.4350    -3.1307    94.0925 C.3        1          -0.1436
      5 N1          0.2660    -6.5836    92.9806 N.4        1          -0.3786
      6 H1         -0.7230    -6.7395    92.7202 H          1           0.4189
      7 C5          0.3669    -6.9082    94.4007 C.3        1           0.0361
      8 C6          1.6647    -6.4276    95.0134 C.ar       1          -0.1825
      9 C7          1.6909    -5.3844    95.9119 C.ar       1          -0.0619
     10 C8          2.8976    -4.9907    96.4657 C.ar       1          -0.1057
     11 C9          4.0656    -5.6467    96.1230 C.ar       1          -0.0646
     12 C10         4.0382    -6.6915    95.2174 C.ar       1          -0.1376
     13 C11         2.8350    -7.0708    94.6479 C.ar       1           0.0983
     14 O1          2.7604    -8.0598    93.7166 O.3        1          -0.2984
     15 C12         2.5277    -7.6516    92.3664 C.3        1           0.0991
     16 C13         3.0077    -8.7867    91.4396 C.3        1          -0.1940
     17 C14         4.5075    -9.0022    91.6179 C.3        1          -0.0161
     18 N2          5.2249    -7.7744    91.2475 N.4        1          -0.3817
     19 H2          4.9869    -7.5196    90.3022 H          1           0.4210
     20 C15         6.6709    -8.0077    91.3448 C.3        1           0.0861
     21 C16         7.0240    -8.3903    92.7590 C.2        1          -0.2765
     22 C17         7.3574    -7.5513    93.7553 C.2        1           0.1472
     23 N3          7.6117    -8.2593    94.8963 N.pl3      1          -0.5613
     24 C18         7.4451    -9.6040    94.6599 C.ar       1           0.0332
     25 C19         7.5668   -10.7503    95.4343 C.ar       1           0.1436
     26 N4          7.3341   -11.9352    94.9078 N.ar       1          -0.4562
     27 C20         6.9800   -12.0956    93.6432 C.ar       1           0.0904
     28 C21         6.8355   -11.0263    92.8049 C.ar       1          -0.1570
     29 C22         7.0628    -9.7420    93.3094 C.ar       1          -0.0614
     30 C23         4.8437    -6.6886    92.1587 C.3        1          -0.0159
     31 C24         3.3477    -6.3994    92.0541 C.3        1          -0.1290
     32 C25         1.0536    -7.4240    92.1170 C.3        1          -0.0364
     33 H3          0.6988    -4.9924    91.6850 H          1           0.1348
     34 H4          1.3983    -4.8505    93.3155 H          1           0.1388
     35 H5         -1.6038    -4.9152    93.3726 H          1           0.1264
     36 H6         -0.0753    -2.5818    91.9387 H          1           0.1068
     37 H7         -1.8517    -2.5712    92.4346 H          1           0.1125
     38 H8         -1.1774    -2.9031    94.8572 H          1           0.1162
     39 H9          0.5990    -2.9139    94.3614 H          1           0.1107
     40 H10        -0.4697    -6.4509    94.9368 H          1           0.1456
     41 H11         0.2976    -7.9930    94.5273 H          1           0.1497
     42 H12         0.7787    -4.8738    96.1839 H          1           0.1453
     43 H13         2.9261    -4.1690    97.1662 H          1           0.1484
     44 H14         5.0035    -5.3430    96.5638 H          1           0.1487
     45 H15         4.9518    -7.2135    94.9722 H          1           0.1421
     46 H16         2.4718    -9.7019    91.6952 H          1           0.1144
     47 H17         2.7922    -8.5166    90.4061 H          1           0.1189
     48 H18         4.7243    -9.2498    92.6562 H          1           0.1413
     49 H19         4.8382    -9.8186    90.9749 H          1           0.1455
     50 H20         6.9552    -8.8140    90.6685 H          1           0.1352
     51 H21         7.2051    -7.0982    91.0704 H          1           0.1402
     52 H22         7.4156    -6.4764    93.6670 H          1           0.1886
     53 H23         7.8715    -7.8712    95.7465 H          1           0.4356
     54 H24         7.8539   -10.6700    96.4724 H          1           0.1664
     55 H25         6.8019   -13.0918    93.2658 H          1           0.1650
     56 H26         6.5467   -11.1699    91.7741 H          1           0.1333
     57 H27         5.0948    -6.9740    93.1788 H          1           0.1387
     58 H28         5.4027    -5.7876    91.8957 H          1           0.1513
     59 H29         3.1147    -6.0522    91.0451 H          1           0.1159
     60 H30         3.1018    -5.6070    92.7660 H          1           0.1339
     61 H31         0.5751    -8.4157    92.0870 H          1           0.1477
     62 H32         0.9599    -7.0297    91.0923 H          1           0.1502
@<TRIPOS>BOND
     1    1    2 1
     2    1    5 1
     3    1   33 1
     4    1   34 1
     5    2    4 1
     6    2    3 1
     7    2   35 1
     8    3    4 1
     9    3   36 1
    10    3   37 1
    11    4   38 1
    12    4   39 1
    13    5    6 1
    14    5   32 1
    15    5    7 1
    16    7    8 1
    17    7   40 1
    18    7   41 1
    19    8   13 ar
    20    8    9 ar
    21    9   10 ar
    22    9   42 1
    23   10   11 ar
    24   10   43 1
    25   11   12 ar
    26   11   44 1
    27   12   13 ar
    28   12   45 1
    29   13   14 1
    30   14   15 1
    31   15   31 1
    32   15   16 1
    33   15   32 1
    34   16   17 1
    35   16   46 1
    36   16   47 1
    37   17   18 1
    38   17   48 1
    39   17   49 1
    40   18   19 1
    41   18   20 1
    42   18   30 1
    43   20   21 1
    44   20   50 1
    45   20   51 1
    46   21   29 1
    47   21   22 2
    48   22   23 1
    49   22   52 1
    50   23   24 1
    51   23   53 1
    52   24   29 ar
    53   24   25 ar
    54   25   26 ar
    55   25   54 1
    56   26   27 ar
    57   27   28 ar
    58   27   55 1
    59   28   29 ar
    60   28   56 1
    61   30   31 1
    62   30   57 1
    63   30   58 1
    64   31   59 1
    65   31   60 1
    66   32   61 1
    67   32   62 1
##########                 Name:              T532194
##########          Protonation:                   91
##########               SMILES:   Cc1cc(=[NH2+])[nH]c2c1cc(cc2)C[NH2+]CCc3ccc(cc3)OC
##########            Long Name:   mylidene-4-methyl-1H-quinolin-6-yl)methyl-[2-(4-methoxyphenyl)ethyl]ammonium
##########          FlexRecCode: 1
##########               Number:                  191
##########   Ligand Source File: /raidb/db2/rgc/tcams/tcams-0000934.db2.gz
##########           GlobalRank: 197
##########                 Rank:                    1
##########               Setnum:                   61
##########             Matchnum:                  934
##########                Cloud:                    1
##########        Electrostatic:           -54.760082
##########        Van der Waals:           -22.415447
##########  Ligand Polar Desolv:            13.049181
########## Ligand Apolar Desolv:            -2.269714
##########      Internal Energy:             0.000000
##########      Receptor Energy: 0.0
########## Receptor Desolvation:             0.000000
########## Receptor Hydrophobic:             0.000000
##########         Total Energy: -66.4
##########        Ligand Charge:             2.000000
##########            Arbitrary:    +999.9990
##########     heavy atom count:   24
##########           pose count:    1
##########        Ligand Energy:             0.000000
# num electro vdwattr vdwrepu polsolv apolsol rdesolv rhydroe totalscore fullpol fullapo
#   1   -0.36   -1.32    0.28    0.15    0.02    0.00    0.00      -1.24    0.28    0.03
#   2    3.19   -1.24    0.16   -1.56    0.39    0.00    0.00       0.94   -3.75    0.93
#   3   -1.60   -1.27    0.12    0.07   -0.12    0.00    0.00      -2.81    0.19   -0.31
#   4    1.18   -1.40    0.34   -1.38   -0.14    0.00    0.00      -1.40   -4.24   -0.42
#   5    0.52   -1.17    0.36   -0.52   -0.12    0.00    0.00      -0.93   -1.89   -0.45
#   6    2.87   -0.83    0.04   -0.76   -0.11    0.00    0.00       1.22   -2.53   -0.36
#   7    2.34   -0.53    0.03   -1.06   -0.07    0.00    0.00       0.71   -3.81   -0.25
#   8    0.24   -0.48    0.05    0.24   -0.09    0.00    0.00      -0.04    1.08   -0.40
#   9   17.19   -1.33    1.00   -5.81    0.18    0.00    0.00      11.24  -23.00    0.73
#  10  -23.83   -0.16    0.08    6.52    0.16    0.00    0.00     -17.22   23.07    0.57
#  11  -11.30   -0.01    0.00    4.08    0.10    0.00    0.00      -7.13   22.72    0.57
#  12   -1.03   -0.52    0.09    0.54   -0.09    0.00    0.00      -1.01    2.66   -0.42
#  13    4.16   -0.93    0.17   -1.27   -0.09    0.00    0.00       2.04   -5.35   -0.37
#  14    0.56   -0.88    0.12   -0.26   -0.10    0.00    0.00      -0.56   -1.13   -0.43
#  15    2.52   -0.72    0.07   -1.28   -0.09    0.00    0.00       0.49   -5.57   -0.40
#  16   -3.13   -0.71    0.07    1.24   -0.15    0.00    0.00      -2.69    5.56   -0.69
#  17    6.56   -0.56    0.02   -5.29    0.25    0.00    0.00       0.98  -21.82    1.04
#  18   -9.28   -1.03    0.15    6.20   -0.67    0.00    0.00      -4.63   19.41   -2.10
#  19   14.27   -2.32    1.85   -9.50    0.32    0.00    0.00       4.63  -25.10    0.85
#  20   -5.62   -0.02    0.00    4.77    0.17    0.00    0.00      -0.70   16.46    0.60
#  21  -17.46   -0.21    0.15    6.58    0.23    0.00    0.00     -10.72   16.94    0.59
#  22    5.32   -1.35    0.27   -3.00   -0.16    0.00    0.00       1.08   -8.48   -0.46
#  23   -1.80   -0.83    0.05    0.66   -0.13    0.00    0.00      -2.05    2.07   -0.42
#  24    2.64   -0.79    0.13   -1.68   -0.07    0.00    0.00       0.23   -4.97   -0.20
#  25    2.05   -1.54    0.74   -1.64   -0.12    0.00    0.00      -0.52   -6.38   -0.46
#  26    0.66   -1.40    0.54   -0.39   -0.12    0.00    0.00      -0.71   -1.53   -0.45
#  27    1.31   -1.37    0.25   -0.68   -0.19    0.00    0.00      -0.67   -1.65   -0.45
#  28    2.32   -1.42    0.17   -1.55   -0.20    0.00    0.00      -0.68   -3.52   -0.46
#  29   -1.70   -0.41    0.09    0.48   -0.12    0.00    0.00      -1.66    1.15   -0.28
#  30   -1.08   -0.44    0.10    0.47   -0.12    0.00    0.00      -1.07    1.07   -0.27
#  31   -1.12   -0.59    0.25    0.39   -0.12    0.00    0.00      -1.20    0.81   -0.26
#  32   -0.21   -0.35    0.10    0.43   -0.05    0.00    0.00      -0.08    1.76   -0.22
#  33   -0.39   -0.27    0.12    0.90   -0.05    0.00    0.00       0.31    5.27   -0.28
#  34   -2.02   -0.13    0.00    0.53   -0.03    0.00    0.00      -1.64    5.28   -0.28
#  35   -3.35   -0.26    0.04    1.21   -0.07    0.00    0.00      -2.43    5.03   -0.28
#  36   -1.75   -0.09    0.00    0.54   -0.02    0.00    0.00      -1.32    6.19   -0.28
#  37   -3.69   -0.16    0.01    1.02   -0.04    0.00    0.00      -2.86    6.51   -0.28
#  38   -2.10   -0.06    0.00    0.42   -0.02    0.00    0.00      -1.74    7.64   -0.28
#  39   -3.89   -0.18    0.03    1.27   -0.04    0.00    0.00      -2.81    8.16   -0.28
#  40   -3.51   -0.17    0.01    1.42   -0.03    0.00    0.00      -2.28    8.52   -0.21
#  41   -2.53   -0.01    0.00    1.01    0.04    0.00    0.00      -1.49   16.31    0.59
#  42   -6.29   -0.66    0.51    2.32   -0.10    0.00    0.00      -4.22    6.66   -0.28
#  43   -2.82   -0.56    0.48    0.96   -0.08    0.00    0.00      -2.02    3.26   -0.28
#  44   -0.85   -0.19    0.03    0.30   -0.04    0.00    0.00      -0.75    2.13   -0.28
#  45   -1.87   -0.29    0.06    1.10   -0.05    0.00    0.00      -1.06    4.42   -0.22
#  46   -1.76   -0.67    0.76    1.09   -0.06    0.00    0.00      -0.64    4.80   -0.28
#  47   -2.97   -0.39    0.22    1.69   -0.06    0.00    0.00      -1.53    7.52   -0.28
#  48   -3.04   -0.60    0.61    1.66   -0.09    0.00    0.00      -1.46    5.48   -0.28
#  49   -2.29   -0.38    0.08    0.42   -0.11    0.00    0.00      -2.28    1.04   -0.28

@<TRIPOS>MOLECULE
          T532194        91
   49    51     0     0     0



@<TRIPOS>ATOM
      1 C1          8.4340    -9.0614    98.5830 C.3        1           0.0226
      2 O1          7.7500    -9.6081    97.4537 O.3        1          -0.3106
      3 C2          6.9691    -8.7592    96.7349 C.ar       1           0.1516
      4 C3          6.2718    -9.2243    95.6295 C.ar       1          -0.2072
      5 C4          5.4783    -8.3595    94.9008 C.ar       1          -0.0650
      6 C5          5.3792    -7.0313    95.2723 C.ar       1          -0.1582
      7 C6          4.5133    -6.0899    94.4753 C.3        1          -0.0915
      8 C7          4.4731    -6.5465    93.0156 C.3        1          -0.0097
      9 N1          5.8349    -6.5447    92.4643 N.4        1          -0.5106
     10 H1          6.2168    -5.6121    92.5147 H          1           0.4275
     11 H2          6.4145    -7.1749    92.9982 H          1           0.4287
     12 C8          5.7964    -6.9831    91.0629 C.3        1           0.0416
     13 C9          7.1932    -6.9813    90.4974 C.ar       1          -0.1663
     14 C10         7.4250    -6.4411    89.2518 C.ar       1          -0.0233
     15 C11         8.7215    -6.4395    88.7291 C.ar       1          -0.1216
     16 C12         9.7751    -6.9895    89.4824 C.ar       1           0.1979
     17 N2         11.0580    -6.9800    88.9519 N.pl3      1          -0.6296
     18 C13        11.3460    -6.0070    88.0064 C.cat      1           0.5668
     19 N3         12.5181    -5.4189    87.9712 N.pl3      1          -0.7096
     20 H3         13.2023    -5.6622    88.6142 H          1           0.4382
     21 H4         12.7003    -4.7405    87.3022 H          1           0.4563
     22 C14        10.2889    -5.6592    87.0443 C.2        1          -0.2234
     23 C15         8.9994    -5.8723    87.4047 C.2        1           0.0821
     24 C16         7.8729    -5.5336    86.4627 C.3        1          -0.1447
     25 C17         9.5210    -7.5288    90.7348 C.ar       1          -0.1300
     26 C18         8.2358    -7.5183    91.2379 C.ar       1          -0.0318
     27 C19         6.0728    -6.5656    96.3739 C.ar       1          -0.0666
     28 C20         6.8635    -7.4274    97.1090 C.ar       1          -0.1497
     29 H5          9.0200    -9.8432    99.0662 H          1           0.1100
     30 H6          9.0972    -8.2614    98.2537 H          1           0.0599
     31 H7          7.7069    -8.6626    99.2902 H          1           0.0610
     32 H8          6.3495   -10.2614    95.3386 H          1           0.1360
     33 H9          4.9352    -8.7210    94.0401 H          1           0.1264
     34 H10         3.5030    -6.0912    94.8844 H          1           0.0943
     35 H11         4.9261    -5.0826    94.5296 H          1           0.0936
     36 H12         4.0604    -7.5538    92.9611 H          1           0.1362
     37 H13         3.8470    -5.8656    92.4391 H          1           0.1367
     38 H14         5.3838    -7.9905    91.0084 H          1           0.1476
     39 H15         5.1701    -6.3024    90.4862 H          1           0.1465
     40 H16         6.6094    -6.0213    88.6817 H          1           0.1586
     41 H17        11.7250    -7.6265    89.2309 H          1           0.4483
     42 H18        10.5335    -5.2450    86.0773 H          1           0.1924
     43 H19         8.2824    -5.1271    85.5379 H          1           0.1105
     44 H20         7.3009    -6.4347    86.2413 H          1           0.1025
     45 H21         7.2208    -4.7940    86.9272 H          1           0.0906
     46 H22        10.3268    -7.9526    91.3158 H          1           0.1585
     47 H23         8.0398    -7.9347    92.2150 H          1           0.1564
     48 H24         5.9935    -5.5277    96.6622 H          1           0.1308
     49 H25         7.4022    -7.0640    97.9715 H          1           0.1389
@<TRIPOS>BOND
     1    1    2 1
     2    1   29 1
     3    1   30 1
     4    1   31 1
     5    2    3 1
     6    3   28 ar
     7    3    4 ar
     8    4    5 ar
     9    4   32 1
    10    5    6 ar
    11    5   33 1
    12    6    7 1
    13    6   27 ar
    14    7    8 1
    15    7   34 1
    16    7   35 1
    17    8    9 1
    18    8   36 1
    19    8   37 1
    20    9   10 1
    21    9   11 1
    22    9   12 1
    23   12   13 1
    24   12   38 1
    25   12   39 1
    26   13   26 ar
    27   13   14 ar
    28   14   15 ar
    29   14   40 1
    30   15   23 1
    31   15   16 ar
    32   16   17 1
    33   16   25 ar
    34   17   18 1
    35   17   41 1
    36   18   19 2
    37   18   22 1
    38   19   20 1
    39   19   21 1
    40   22   23 2
    41   22   42 1
    42   23   24 1
    43   24   43 1
    44   24   44 1
    45   24   45 1
    46   25   26 ar
    47   25   46 1
    48   26   47 1
    49   27   28 ar
    50   27   48 1
    51   28   49 1
##########                 Name:              T542369
##########          Protonation:                   11
##########               SMILES:   2c(nccc2[C@@H](O)C[NH+]3CC[C@@H](CC3)[NH2+]Cc4nc5c(cccc5[nH]4)OCc6ccccc6)cc1
##########            Long Name:   -[(2R)-2-hydroxy-2-(6-methoxy-4-quinolyl)ethyl]piperidin-1-ium-4-yl]ammonium
##########          FlexRecCode: 1
##########               Number:                  230
##########   Ligand Source File: /raidb/db2/rgc/tcams/tcams-0002366.db2.gz
##########           GlobalRank: 197
##########                 Rank:                    1
##########               Setnum:                  170
##########             Matchnum:                 1720
##########                Cloud:                    1
##########        Electrostatic:           -55.819923
##########        Van der Waals:           -17.189528
##########  Ligand Polar Desolv:             8.132858
########## Ligand Apolar Desolv:            -1.525440
##########      Internal Energy:             0.000000
##########      Receptor Energy: 0.0
########## Receptor Desolvation:             0.000000
########## Receptor Hydrophobic:             0.000000
##########         Total Energy: -66.4
##########        Ligand Charge:             2.000000
##########            Arbitrary:    +999.9990
##########     heavy atom count:   40
##########           pose count:    1
##########        Ligand Energy:             0.000000
# num electro vdwattr vdwrepu polsolv apolsol rdesolv rhydroe totalscore fullpol fullapo
#   1   -0.01   -0.05    0.00    0.01    0.00    0.00    0.00      -0.05    0.24    0.03
#   2    0.31   -0.07    0.00   -0.25    0.04    0.00    0.00       0.02   -6.53    0.93
#   3   -0.21   -0.12    0.00    0.10   -0.02    0.00    0.00      -0.25    1.72   -0.31
#   4    0.20   -0.15    0.00   -0.18   -0.03    0.00    0.00      -0.15   -2.90   -0.43
#   5    0.04   -0.30    0.02   -0.23   -0.06    0.00    0.00      -0.54   -1.90   -0.46
#   6   -0.18   -0.63    0.22    0.04   -0.10    0.00    0.00      -0.64    0.31   -0.73
#   7    0.81   -1.17    0.68   -1.66    0.42    0.00    0.00      -0.91   -7.92    2.00
#   8   -0.26   -1.98    3.19    0.31   -0.20    0.00    0.00       1.06    1.52   -0.97
#   9    0.34   -1.62    2.20   -0.66   -0.07    0.00    0.00       0.19   -4.02   -0.44
#  10    0.28   -0.81    0.47   -0.15   -0.05    0.00    0.00      -0.25   -1.04   -0.35
#  11   -0.99   -0.22    0.01    0.69   -0.01    0.00    0.00      -0.52    5.61   -0.10
#  12    4.48   -0.46    0.03   -4.30    0.31    0.00    0.00       0.05  -21.90    1.58
#  13    0.32   -0.10    0.00   -0.06   -0.02    0.00    0.00       0.14   -0.99   -0.32
#  14    4.99   -0.23    0.01   -2.01    0.03    0.00    0.00       2.78  -18.25    0.27
#  15   -6.19   -0.01    0.00    1.94    0.04    0.00    0.00      -4.21   24.19    0.49
#  16    0.22   -0.36    0.02   -0.28   -0.07    0.00    0.00      -0.46   -1.46   -0.37
#  17    6.00   -1.56    1.50   -2.43   -0.07    0.00    0.00       3.44   -8.58   -0.24
#  18   -0.37   -0.61    0.15    0.46   -0.05    0.00    0.00      -0.42    2.12   -0.23
#  19    2.80   -0.28    0.01   -1.51   -0.03    0.00    0.00       0.99   -9.80   -0.20
#  20    0.03   -0.14    0.00   -0.03   -0.03    0.00    0.00      -0.18   -0.39   -0.38
#  21   19.28   -1.73    1.94   -7.00    0.17    0.00    0.00      12.65  -25.78    0.63
#  22  -23.10   -0.10    0.03    6.08    0.15    0.00    0.00     -16.95   22.90    0.56
#  23  -18.31   -0.04    0.00    6.28    0.14    0.00    0.00     -11.92   25.06    0.56
#  24   -2.10   -0.45    0.02    1.19   -0.10    0.00    0.00      -1.44    5.13   -0.43
#  25   -2.32   -0.80    0.07    2.66   -0.54    0.00    0.00      -0.92   10.39   -2.10
#  26    1.72   -1.55    0.87   -3.56    0.53    0.00    0.00      -1.98  -14.07    2.11
#  27   -0.03   -1.66    0.75   -0.19   -0.24    0.00    0.00      -1.37   -0.61   -0.78
#  28   -0.26   -2.14    0.98    0.55   -0.11    0.00    0.00      -0.99    1.57   -0.31
#  29   -0.84   -3.95    5.11   -1.53    0.31    0.00    0.00      -0.90   -4.33    0.89
#  30   -0.59   -1.00    0.23    0.46   -0.03    0.00    0.00      -0.94    1.45   -0.10
#  31    0.48   -1.35    0.48   -0.35   -0.10    0.00    0.00      -0.84   -1.32   -0.39
#  32    0.50   -2.14    0.97   -0.43   -0.14    0.00    0.00      -1.25   -1.43   -0.45
#  33    0.30   -0.86    0.16   -0.37   -0.10    0.00    0.00      -0.88   -1.70   -0.47
#  34    0.05   -0.31    0.02   -0.19   -0.06    0.00    0.00      -0.49   -1.62   -0.47
#  35    0.14   -0.26    0.02   -0.17   -0.05    0.00    0.00      -0.32   -1.74   -0.47
#  36    0.33   -0.50    0.06   -0.22   -0.07    0.00    0.00      -0.39   -1.41   -0.45
#  37    1.12   -1.50    0.20   -1.49   -0.17    0.00    0.00      -1.84   -3.78   -0.42
#  38    0.13   -1.58    0.32   -0.76   -0.19    0.00    0.00      -2.08   -1.87   -0.47
#  39    2.02   -1.41    0.15   -1.25   -0.20    0.00    0.00      -0.68   -3.02   -0.47
#  40   -1.36   -1.12    0.09    0.65   -0.27    0.00    0.00      -2.02    1.86   -0.78
#  41   10.02   -0.93    0.04   -6.28    0.40    0.00    0.00       3.25  -18.31    1.16
#  42    0.09   -0.52    0.17   -0.21   -0.05    0.00    0.00      -0.52   -1.71   -0.40
#  43    0.33   -0.19    0.01   -0.22   -0.04    0.00    0.00      -0.11   -2.56   -0.43
#  44   -0.01   -0.02    0.00    0.02   -0.01    0.00    0.00      -0.01    1.15   -0.27
#  45   -0.03   -0.01    0.00    0.01    0.00    0.00    0.00      -0.03    0.73   -0.27
#  46   -0.07   -0.01    0.00    0.05   -0.01    0.00    0.00      -0.04    2.81   -0.28
#  47   -0.12   -0.02    0.00    0.05   -0.01    0.00    0.00      -0.10    1.94   -0.22
#  48   -0.16   -0.08    0.01    0.05   -0.03    0.00    0.00      -0.22    0.55   -0.28
#  49   -0.34   -0.23    0.07    0.53   -0.05    0.00    0.00      -0.02    2.93   -0.28
#  50   -0.39   -0.16    0.04    0.89   -0.03    0.00    0.00       0.35    7.51   -0.22
#  51   -1.29   -0.05    0.00    0.36   -0.01    0.00    0.00      -0.99    6.58   -0.18
#  52   -3.20   -0.01    0.00    2.64    0.15    0.00    0.00      -0.42   17.28    1.00
#  53   -0.58   -0.02    0.00    0.23   -0.01    0.00    0.00      -0.37    8.33   -0.28
#  54   -0.92   -0.02    0.00    0.21   -0.01    0.00    0.00      -0.75    7.45   -0.28
#  55   -2.13   -0.08    0.00    0.70   -0.02    0.00    0.00      -1.53    8.75   -0.28
#  56   -3.04   -0.11    0.01    0.74   -0.03    0.00    0.00      -2.42    5.92   -0.22
#  57   -5.75   -0.77    0.95    2.02   -0.09    0.00    0.00      -3.64    6.18   -0.28
#  58   -5.36   -1.17    2.46    2.20   -0.08    0.00    0.00      -1.96    7.30   -0.28
#  59   -3.02   -0.10    0.00    1.11   -0.03    0.00    0.00      -2.03   10.89   -0.28
#  60   -1.47   -0.06    0.00    0.49   -0.01    0.00    0.00      -1.05    8.72   -0.22
#  61   -2.18   -0.12    0.01    1.20   -0.04    0.00    0.00      -1.14    8.64   -0.28
#  62   -0.76   -0.03    0.00    0.26   -0.01    0.00    0.00      -0.53    8.13   -0.28
#  63   -0.94   -0.04    0.00    0.31   -0.01    0.00    0.00      -0.68    8.43   -0.28
#  64   -3.91   -0.15    0.00    1.61   -0.03    0.00    0.00      -2.47   13.06   -0.21
#  65   -2.57   -0.09    0.00    0.78   -0.02    0.00    0.00      -1.90    9.38   -0.28
#  66   -0.59   -0.15    0.01    0.19   -0.04    0.00    0.00      -0.58    1.29   -0.26
#  67   -0.97   -0.44    0.15    0.33   -0.09    0.00    0.00      -1.02    1.01   -0.27
#  68   -0.99   -0.91    0.72    0.71   -0.11    0.00    0.00      -0.59    1.73   -0.28
#  69   -0.24   -0.14    0.01    0.25   -0.04    0.00    0.00      -0.15    1.76   -0.28
#  70   -0.06   -0.02    0.00    0.04   -0.01    0.00    0.00      -0.05    1.81   -0.28
#  71   -0.16   -0.02    0.00    0.05   -0.01    0.00    0.00      -0.13    2.13   -0.28
#  72   -0.64   -0.06    0.00    0.12   -0.02    0.00    0.00      -0.59    2.24   -0.28
#  73   -0.89   -0.27    0.02    0.53   -0.07    0.00    0.00      -0.68    1.68   -0.22
#  74   -1.60   -0.32    0.07    0.69   -0.08    0.00    0.00      -1.24    2.41   -0.28
#  75   -2.14   -0.28    0.02    1.36   -0.10    0.00    0.00      -1.14    3.86   -0.28
#  76   -9.12   -0.02    0.00    3.69    0.12    0.00    0.00      -5.33   18.12    0.59
#  77   -0.38   -0.03    0.00    0.28   -0.01    0.00    0.00      -0.13    8.82   -0.22

@<TRIPOS>MOLECULE
          T542369        11
   77    82     0     0     0



@<TRIPOS>ATOM
      1 C1         12.3807   -12.0637    86.9952 C.3        1           0.0187
      2 O1         11.3929   -11.0799    87.3089 O.3        1          -0.3156
      3 C2         10.4101   -10.8782    86.3922 C.ar       1           0.1645
      4 C3         10.4021   -11.6269    85.2112 C.ar       1          -0.1769
      5 C4          9.4323   -11.4482    84.2751 C.ar       1          -0.0292
      6 C5          8.4185   -10.4976    84.4908 C.ar       1           0.0983
      7 N1          7.4533   -10.3027    83.5868 N.ar       1          -0.4351
      8 C6          6.5050    -9.4189    83.7816 C.ar       1           0.1189
      9 C7          6.4544    -8.6401    84.9357 C.ar       1          -0.1277
     10 C8          7.4098    -8.7884    85.9004 C.ar       1          -0.1067
     11 C9          7.3764    -7.9581    87.1576 C.3        1           0.1375
     12 O2          6.7756    -6.6924    86.8768 O.3        1          -0.5444
     13 C10         6.5584    -8.6849    88.2271 C.3        1          -0.0467
     14 N2          6.1194    -7.7221    89.2460 N.4        1          -0.3846
     15 H1          5.8446    -6.8612    88.7975 H          1           0.4308
     16 C11         7.2243    -7.4573    90.1750 C.3        1          -0.0114
     17 C12         6.7986    -6.3944    91.1902 C.3        1          -0.1682
     18 C13         5.5830    -6.9009    91.9718 C.3        1           0.0137
     19 C14         4.4620    -7.2443    90.9866 C.3        1          -0.1733
     20 C15         4.9755    -8.2764    89.9801 C.3        1          -0.0027
     21 N3          5.1220    -5.8552    92.8950 N.4        1          -0.5070
     22 H2          5.9198    -5.3959    93.3082 H          1           0.4463
     23 H3          4.5696    -5.1794    92.3889 H          1           0.4297
     24 C16         4.3040    -6.4624    93.9533 C.3        1           0.0930
     25 C17         5.1293    -7.4718    94.7091 C.2        1           0.1578
     26 N4          5.2307    -8.7317    94.4022 N.2        1          -0.4073
     27 C18         6.0516    -9.3524    95.2882 C.ar       1           0.0069
     28 C19         6.5005   -10.6732    95.4273 C.ar       1           0.2104
     29 O3          6.0972   -11.6277    94.5480 O.3        1          -0.2917
     30 C20         7.1166   -12.2906    93.7973 C.3        1           0.0985
     31 C21         6.5630   -12.7103    92.4600 C.ar       1          -0.1062
     32 C22         5.9672   -13.9495    92.3168 C.ar       1          -0.0933
     33 C23         5.4593   -14.3345    91.0901 C.ar       1          -0.1207
     34 C24         5.5470   -13.4803    90.0068 C.ar       1          -0.1024
     35 C25         6.1420   -12.2408    90.1502 C.ar       1          -0.1222
     36 C26         6.6460   -11.8541    91.3780 C.ar       1          -0.0949
     37 C27         7.3549   -10.9994    96.4619 C.ar       1          -0.2273
     38 C28         7.7705   -10.0299    97.3631 C.ar       1          -0.0146
     39 C29         7.3374    -8.7275    97.2387 C.ar       1          -0.1700
     40 C30         6.4779    -8.3784    96.2045 C.ar       1           0.1242
     41 N5          5.8822    -7.1973    95.8094 N.pl3      1          -0.5889
     42 C31         8.4266    -9.7388    85.6877 C.ar       1          -0.0432
     43 C32         9.4381    -9.9503    86.6375 C.ar       1          -0.1880
     44 H4         13.1040   -12.1245    87.8084 H          1           0.0646
     45 H5         11.8994   -13.0329    86.8638 H          1           0.0659
     46 H6         12.8921   -11.7843    86.0740 H          1           0.1107
     47 H7         11.1784   -12.3580    85.0399 H          1           0.1479
     48 H8          9.4409   -12.0344    83.3680 H          1           0.1521
     49 H9          5.7431    -9.2906    83.0270 H          1           0.1711
     50 H10         5.6606    -7.9196    85.0674 H          1           0.1413
     51 H11         8.3932    -7.8055    87.5194 H          1           0.1363
     52 H12         7.2425    -6.1756    86.2059 H          1           0.3924
     53 H13         5.6864    -9.1481    87.7651 H          1           0.1468
     54 H14         7.1733    -9.4539    88.6947 H          1           0.1507
     55 H15         7.4856    -8.3763    90.6998 H          1           0.1466
     56 H16         8.0899    -7.1000    89.6171 H          1           0.1533
     57 H17         7.6198    -6.2005    91.8802 H          1           0.1416
     58 H18         6.5374    -5.4749    90.6665 H          1           0.1151
     59 H19         5.8577    -7.7918    92.5362 H          1           0.1637
     60 H20         3.6130    -7.6579    91.5308 H          1           0.1383
     61 H21         4.1523    -6.3424    90.4585 H          1           0.1150
     62 H22         4.1794    -8.5244    89.2779 H          1           0.1528
     63 H23         5.2858    -9.1776    90.5090 H          1           0.1452
     64 H24         3.9621    -5.6866    94.6384 H          1           0.1502
     65 H25         3.4424    -6.9587    93.5070 H          1           0.1687
     66 H26         7.9560   -11.6118    93.6462 H          1           0.0799
     67 H27         7.4551   -13.1713    94.3431 H          1           0.0805
     68 H28         5.8988   -14.6168    93.1631 H          1           0.1245
     69 H29         4.9945   -15.3029    90.9779 H          1           0.1290
     70 H30         5.1510   -13.7814    89.0482 H          1           0.1285
     71 H31         6.2109   -11.5736    89.3038 H          1           0.1280
     72 H32         7.1076   -10.8842    91.4909 H          1           0.1231
     73 H33         7.7016   -12.0164    96.5706 H          1           0.1485
     74 H34         8.4383   -10.2979    98.1685 H          1           0.1486
     75 H35         7.6660    -7.9788    97.9444 H          1           0.1362
     76 H36         5.9802    -6.3325    96.2379 H          1           0.4285
     77 H37         9.4502    -9.3800    87.5545 H          1           0.1254
@<TRIPOS>BOND
     1    1    2 1
     2    1   44 1
     3    1   45 1
     4    1   46 1
     5    2    3 1
     6    3   43 ar
     7    3    4 ar
     8    4    5 ar
     9    4   47 1
    10    5    6 ar
    11    5   48 1
    12    6   42 ar
    13    6    7 ar
    14    7    8 ar
    15    8    9 ar
    16    8   49 1
    17    9   10 ar
    18    9   50 1
    19   10   11 1
    20   10   42 ar
    21   11   12 1
    22   11   13 1
    23   11   51 1
    24   12   52 1
    25   13   14 1
    26   13   53 1
    27   13   54 1
    28   14   15 1
    29   14   20 1
    30   14   16 1
    31   16   17 1
    32   16   55 1
    33   16   56 1
    34   17   18 1
    35   17   57 1
    36   17   58 1
    37   18   19 1
    38   18   21 1
    39   18   59 1
    40   19   20 1
    41   19   60 1
    42   19   61 1
    43   20   62 1
    44   20   63 1
    45   21   22 1
    46   21   23 1
    47   21   24 1
    48   24   25 1
    49   24   64 1
    50   24   65 1
    51   25   41 1
    52   25   26 2
    53   26   27 1
    54   27   40 ar
    55   27   28 ar
    56   28   29 1
    57   28   37 ar
    58   29   30 1
    59   30   31 1
    60   30   66 1
    61   30   67 1
    62   31   36 ar
    63   31   32 ar
    64   32   33 ar
    65   32   68 1
    66   33   34 ar
    67   33   69 1
    68   34   35 ar
    69   34   70 1
    70   35   36 ar
    71   35   71 1
    72   36   72 1
    73   37   38 ar
    74   37   73 1
    75   38   39 ar
    76   38   74 1
    77   39   40 ar
    78   39   75 1
    79   40   41 1
    80   41   76 1
    81   42   43 ar
    82   43   77 1
##########                 Name:              T529475
##########          Protonation:                   32
##########               SMILES:   c1ccc(cc1)c2cc(c3ccccc3[nH+]2)NCCNc4cc([nH+]c5c4cccc5)c6ccccc6
##########            Long Name:   N,N'-bis(2-phenylquinolin-1-ium-4-yl)ethane-1,2-diamine
##########          FlexRecCode: 1
##########               Number:                  198
##########   Ligand Source File: /raidb/db2/rgc/tcams/tcams-0001135.db2.gz
##########           GlobalRank: 198
##########                 Rank:                    1
##########               Setnum:                   85
##########             Matchnum:                 1712
##########                Cloud:                    1
##########        Electrostatic:           -36.414291
##########        Van der Waals:           -33.082275
##########  Ligand Polar Desolv:             8.359022
########## Ligand Apolar Desolv:            -5.241927
##########      Internal Energy:             0.000000
##########      Receptor Energy: 0.0
########## Receptor Desolvation:             0.000000
########## Receptor Hydrophobic:             0.000000
##########         Total Energy: -66.38
##########        Ligand Charge:             2.000000
##########            Arbitrary:    +999.9990
##########     heavy atom count:   36
##########           pose count:    1
##########        Ligand Energy:             0.000000
# num electro vdwattr vdwrepu polsolv apolsol rdesolv rhydroe totalscore fullpol fullapo
#   1   -2.16   -0.60    0.09    0.67   -0.09    0.00    0.00      -2.08    2.83   -0.38
#   2   -1.88   -0.69    0.15    0.68   -0.09    0.00    0.00      -1.83    2.83   -0.38
#   3   16.62   -0.85    0.12   -5.84    0.39    0.00    0.00      10.44  -24.69    1.66
#   4   -5.84   -0.75    0.06    3.18   -0.18    0.00    0.00      -3.54   12.63   -0.72
#   5    2.25   -0.76    0.05   -1.14   -0.10    0.00    0.00       0.30   -4.45   -0.40
#   6    1.67   -0.83    0.05   -0.44   -0.13    0.00    0.00       0.33   -1.53   -0.45
#   7    2.65   -1.11    0.07   -1.49   -0.17    0.00    0.00      -0.04   -4.11   -0.47
#   8    0.59   -1.59    0.22   -0.84   -0.21    0.00    0.00      -1.83   -1.87   -0.47
#   9    1.98   -1.70    0.27   -1.93   -0.20    0.00    0.00      -1.57   -4.50   -0.46
#  10   -1.79   -1.27    0.23    1.58   -0.25    0.00    0.00      -1.50    4.65   -0.73
#  11    2.05   -2.10    0.84   -5.39    0.33    0.00    0.00      -4.27  -14.88    0.92
#  12   -0.81   -0.06    0.00    4.95    0.17    0.00    0.00       4.25   13.09    0.44
#  13   -1.52   -1.53    0.47    2.99   -0.24    0.00    0.00       0.15    9.08   -0.74
#  14    2.46   -0.99    0.14   -2.21   -0.11    0.00    0.00      -0.72   -8.36   -0.41
#  15    0.46   -1.60    0.28   -1.06   -0.15    0.00    0.00      -2.07   -2.89   -0.41
#  16    0.09   -2.59    1.24   -0.61   -0.17    0.00    0.00      -2.03   -1.54   -0.44
#  17    0.93   -3.03    2.69   -1.63   -0.23    0.00    0.00      -1.26   -3.41   -0.47
#  18    0.56   -1.99    0.32   -1.52   -0.26    0.00    0.00      -2.88   -2.77   -0.47
#  19    0.81   -1.64    0.23   -1.87   -0.26    0.00    0.00      -2.73   -3.39   -0.47
#  20    0.62   -1.53    0.27   -1.12   -0.18    0.00    0.00      -1.94   -2.67   -0.44
#  21   11.74   -0.56    0.03   -4.89    0.33    0.00    0.00       6.66  -24.69    1.66
#  22   -5.88   -0.48    0.02    2.28   -0.13    0.00    0.00      -4.19   12.63   -0.72
#  23    1.57   -0.48    0.01   -0.90   -0.08    0.00    0.00       0.13   -4.45   -0.40
#  24    0.39   -0.40    0.01   -0.25   -0.07    0.00    0.00      -0.32   -1.54   -0.45
#  25    0.22   -0.42    0.01   -0.68   -0.08    0.00    0.00      -0.94   -4.11   -0.47
#  26    0.07   -0.90    0.17   -0.42   -0.11    0.00    0.00      -1.19   -1.87   -0.47
#  27    1.23   -1.92    0.94   -1.39   -0.14    0.00    0.00      -1.30   -4.50   -0.46
#  28   -2.75   -1.01    0.12    1.35   -0.21    0.00    0.00      -2.49    4.65   -0.73
#  29   11.99   -1.98    0.81   -5.24    0.32    0.00    0.00       5.91  -14.88    0.92
#  30  -15.14   -0.09    0.01    5.11    0.17    0.00    0.00      -9.93   13.09    0.44
#  31   -5.61   -1.17    0.25    2.83   -0.23    0.00    0.00      -3.94    9.08   -0.74
#  32    4.54   -0.60    0.03   -1.86   -0.09    0.00    0.00       2.03   -8.36   -0.41
#  33    0.73   -1.86    0.84   -0.97   -0.14    0.00    0.00      -1.40   -2.89   -0.41
#  34    0.24   -1.25    0.32   -0.43   -0.12    0.00    0.00      -1.24   -1.54   -0.44
#  35    0.36   -1.33    0.18   -1.30   -0.18    0.00    0.00      -2.26   -3.41   -0.47
#  36    0.22   -2.60    0.98   -1.37   -0.23    0.00    0.00      -3.00   -2.77   -0.47
#  37    0.53   -2.68    0.80   -1.74   -0.24    0.00    0.00      -3.34   -3.39   -0.47
#  38    1.18   -2.54    1.19   -1.24   -0.20    0.00    0.00      -1.61   -2.68   -0.44
#  39   -1.87   -0.08    0.00    0.41   -0.02    0.00    0.00      -1.56    5.18   -0.27
#  40   -3.72   -0.57    0.41    1.46   -0.08    0.00    0.00      -2.50    5.19   -0.27
#  41   -1.30   -0.10    0.01    0.51   -0.03    0.00    0.00      -0.90    5.18   -0.27
#  42   -2.27   -0.74    1.00    1.49   -0.08    0.00    0.00      -0.60    5.19   -0.27
#  43  -12.44   -0.01    0.00    2.59    0.07    0.00    0.00      -9.79   17.33    0.45
#  44   -4.94   -0.24    0.05    1.35   -0.04    0.00    0.00      -3.82    7.22   -0.22
#  45   -4.36   -0.29    0.03    1.13   -0.08    0.00    0.00      -3.57    4.10   -0.28
#  46   -3.99   -0.50    0.13    1.49   -0.12    0.00    0.00      -2.98    3.35   -0.28
#  47   -1.76   -0.69    0.40    1.97   -0.13    0.00    0.00      -0.20    4.37   -0.28
#  48   -1.60   -0.18    0.03    1.38   -0.03    0.00    0.00      -0.40    8.65   -0.18
#  49    0.36   -0.89    0.97    2.36   -0.07    0.00    0.00       2.73    7.31   -0.21
#  50   -2.08   -1.28    2.74    1.70   -0.12    0.00    0.00       0.95    3.83   -0.28
#  51   -1.52   -0.56    0.14    1.11   -0.15    0.00    0.00      -0.98    2.02   -0.28
#  52   -1.12   -0.35    0.04    1.00   -0.13    0.00    0.00      -0.55    2.23   -0.28
#  53   -1.35   -0.28    0.04    1.02   -0.05    0.00    0.00      -0.62    4.35   -0.22
#  54   -5.51   -0.01    0.00    1.87    0.05    0.00    0.00      -3.60   17.33    0.45
#  55   -1.05   -0.08    0.00    0.63   -0.02    0.00    0.00      -0.52    7.23   -0.22
#  56   -0.19   -0.06    0.00    0.25   -0.02    0.00    0.00      -0.02    4.10   -0.28
#  57   -0.32   -0.18    0.04    0.52   -0.04    0.00    0.00       0.02    3.35   -0.28
#  58   -2.39   -1.45    5.64    1.74   -0.11    0.00    0.00       3.43    4.37   -0.28
#  59   -2.83   -0.11    0.00    0.95   -0.02    0.00    0.00      -2.00    8.65   -0.18
#  60   -0.44   -0.13    0.02    0.86   -0.02    0.00    0.00       0.28    7.31   -0.21
#  61   -0.34   -0.18    0.01    0.78   -0.06    0.00    0.00       0.21    3.83   -0.28
#  62   -0.39   -0.88    0.76    1.03   -0.14    0.00    0.00       0.37    2.02   -0.28
#  63   -1.01   -0.63    0.21    1.15   -0.14    0.00    0.00      -0.43    2.23   -0.28
#  64   -3.39   -0.49    0.14    1.74   -0.09    0.00    0.00      -2.09    4.35   -0.22

@<TRIPOS>MOLECULE
          T529475        32
   64    69     0     0     0



@<TRIPOS>ATOM
      1 C1          7.3533    -7.0220    90.4777 C.3        1           0.0882
      2 C2          7.3392    -7.7156    91.8415 C.3        1           0.0882
      3 N1          6.1444    -7.3074    92.5846 N.pl3      1          -0.6864
      4 C3          5.9133    -7.8100    93.8566 C.ar       1           0.3549
      5 C4          5.0329    -7.1534    94.7515 C.ar       1          -0.1314
      6 C5          4.3672    -5.9767    94.3833 C.ar       1          -0.0641
      7 C6          3.5270    -5.3715    95.2694 C.ar       1          -0.1041
      8 C7          3.3215    -5.9076    96.5383 C.ar       1          -0.0272
      9 C8          3.9527    -7.0491    96.9280 C.ar       1          -0.1431
     10 C9          4.8262    -7.7018    96.0401 C.ar       1           0.1779
     11 N2          5.4570    -8.8245    96.3994 N.ar       1          -0.5099
     12 H1          5.3059    -9.1893    97.2855 H          1           0.4400
     13 C10         6.2802    -9.4492    95.5772 C.ar       1           0.3284
     14 C11         6.5310    -8.9704    94.2868 C.ar       1          -0.2647
     15 C12         6.9515   -10.6915    96.0311 C.ar       1          -0.1264
     16 C13         6.7538   -11.8858    95.3404 C.ar       1          -0.0618
     17 C14         7.3809   -13.0386    95.7673 C.ar       1          -0.1152
     18 C15         8.2042   -13.0104    96.8787 C.ar       1          -0.0630
     19 C16         8.4041   -11.8279    97.5680 C.ar       1          -0.1086
     20 C17         7.7869   -10.6676    97.1465 C.ar       1          -0.0848
     21 N3          8.5480    -7.4302    89.7348 N.pl3      1          -0.6864
     22 C18         8.7791    -6.9276    88.4628 C.ar       1           0.3548
     23 C19        10.0753    -6.9563    87.8914 C.ar       1          -0.1313
     24 C20        11.1654    -7.4924    88.5899 C.ar       1          -0.0642
     25 C21        12.3985    -7.5042    88.0096 C.ar       1          -0.1040
     26 C22        12.5898    -6.9894    86.7298 C.ar       1          -0.0272
     27 C23        11.5525    -6.4611    86.0240 C.ar       1          -0.1431
     28 C24        10.2655    -6.4327    86.5901 C.ar       1           0.1780
     29 N4          9.2309    -5.9200    85.9164 N.ar       1          -0.5099
     30 H2          9.3755    -5.5647    85.0255 H          1           0.4400
     31 C25         8.0165    -5.8860    86.4342 C.ar       1           0.3283
     32 C26         7.7500    -6.3886    87.7124 C.ar       1          -0.2646
     33 C27         6.9071    -5.3052    85.6392 C.ar       1          -0.1264
     34 C28         5.7980    -6.0840    85.3128 C.ar       1          -0.0618
     35 C29         4.7688    -5.5384    84.5729 C.ar       1          -0.1152
     36 C30         4.8364    -4.2215    84.1549 C.ar       1          -0.0630
     37 C31         5.9347    -3.4440    84.4759 C.ar       1          -0.1086
     38 C32         6.9670    -3.9772    85.2206 C.ar       1          -0.0848
     39 H3          6.4624    -7.3048    89.9171 H          1           0.0983
     40 H4          7.3653    -5.9414    90.6199 H          1           0.0983
     41 H5          7.3271    -8.7962    91.6994 H          1           0.0983
     42 H6          8.2301    -7.4328    92.4022 H          1           0.0983
     43 H7          5.5148    -6.6855    92.1871 H          1           0.4215
     44 H8          4.5193    -5.5512    93.4024 H          1           0.1437
     45 H9          3.0145    -4.4646    94.9844 H          1           0.1533
     46 H10         2.6513    -5.4102    97.2235 H          1           0.1580
     47 H11         3.7832    -7.4518    97.9157 H          1           0.1582
     48 H12         7.2057    -9.5016    93.6317 H          1           0.1741
     49 H13         6.1108   -11.9091    94.4730 H          1           0.1356
     50 H14         7.2285   -13.9647    95.2330 H          1           0.1439
     51 H15         8.6924   -13.9151    97.2097 H          1           0.1442
     52 H16         9.0475   -11.8117    98.4352 H          1           0.1453
     53 H17         7.9472    -9.7440    97.6828 H          1           0.1268
     54 H18         9.1776    -8.0520    90.1323 H          1           0.4215
     55 H19        11.0292    -7.8936    89.5833 H          1           0.1437
     56 H20        13.2378    -7.9176    88.5491 H          1           0.1534
     57 H21        13.5762    -7.0095    86.2907 H          1           0.1580
     58 H22        11.7174    -6.0652    85.0327 H          1           0.1582
     59 H23         6.7473    -6.3528    88.1121 H          1           0.1741
     60 H24         5.7446    -7.1124    85.6381 H          1           0.1356
     61 H25         3.9091    -6.1408    84.3194 H          1           0.1439
     62 H26         4.0291    -3.7989    83.5754 H          1           0.1442
     63 H27         5.9823    -2.4165    84.1466 H          1           0.1453
     64 H28         7.8218    -3.3679    85.4745 H          1           0.1268
@<TRIPOS>BOND
     1    1    2 1
     2    1   21 1
     3    1   39 1
     4    1   40 1
     5    2    3 1
     6    2   41 1
     7    2   42 1
     8    3    4 1
     9    3   43 1
    10    4   14 ar
    11    4    5 ar
    12    5   10 ar
    13    5    6 ar
    14    6    7 ar
    15    6   44 1
    16    7    8 ar
    17    7   45 1
    18    8    9 ar
    19    8   46 1
    20    9   10 ar
    21    9   47 1
    22   10   11 ar
    23   11   12 1
    24   11   13 ar
    25   13   14 ar
    26   13   15 1
    27   14   48 1
    28   15   20 ar
    29   15   16 ar
    30   16   17 ar
    31   16   49 1
    32   17   18 ar
    33   17   50 1
    34   18   19 ar
    35   18   51 1
    36   19   20 ar
    37   19   52 1
    38   20   53 1
    39   21   22 1
    40   21   54 1
    41   22   32 ar
    42   22   23 ar
    43   23   28 ar
    44   23   24 ar
    45   24   25 ar
    46   24   55 1
    47   25   26 ar
    48   25   56 1
    49   26   27 ar
    50   26   57 1
    51   27   28 ar
    52   27   58 1
    53   28   29 ar
    54   29   30 1
    55   29   31 ar
    56   31   32 ar
    57   31   33 1
    58   32   59 1
    59   33   38 ar
    60   33   34 ar
    61   34   35 ar
    62   34   60 1
    63   35   36 ar
    64   35   61 1
    65   36   37 ar
    66   36   62 1
    67   37   38 ar
    68   37   63 1
    69   38   64 1
##########                 Name:              T541333
##########          Protonation:                   70
##########               SMILES:   c1ccc2c(c1)c(=O)cc([nH]2)NCCC[NH2+]Cc3c(nc(s3)Br)Br
##########            Long Name:   dibromothiazol-5-yl)methyl-[3-[(4-oxo-1H-quinolin-2-yl)amino]propyl]ammonium
##########          FlexRecCode: 1
##########               Number:                    9
##########   Ligand Source File: /raidb/db2/rgc/tcams/tcams-0002152.db2.gz
##########           GlobalRank: 199
##########                 Rank:                    1
##########               Setnum:                  103
##########             Matchnum:                 6366
##########                Cloud:                    1
##########        Electrostatic:           -52.326370
##########        Van der Waals:           -26.707336
##########  Ligand Polar Desolv:            15.299614
########## Ligand Apolar Desolv:            -2.626975
##########      Internal Energy:             0.000000
##########      Receptor Energy: 0.0
########## Receptor Desolvation:             0.000000
########## Receptor Hydrophobic:             0.000000
##########         Total Energy: -66.36
##########        Ligand Charge:             1.000000
##########            Arbitrary:    +999.9990
##########     heavy atom count:   24
##########           pose count:    1
##########        Ligand Energy:             0.000000
# num electro vdwattr vdwrepu polsolv apolsol rdesolv rhydroe totalscore fullpol fullapo
#   1   -3.24   -3.89    1.01    0.03   -0.43    0.00    0.00      -6.52    0.09   -1.11
#   2   -1.42   -1.45    0.39   -0.30   -0.15    0.00    0.00      -2.94   -1.04   -0.53
#   3    4.73   -1.07    0.20   -1.91    0.52    0.00    0.00       2.46   -7.51    2.04
#   4   -2.21   -0.81    0.09    0.14   -0.15    0.00    0.00      -2.93    0.59   -0.62
#   5   -0.33   -1.12    0.08    0.05   -0.19    0.00    0.00      -1.51    0.27   -1.09
#   6    9.06   -1.41    0.57   -1.08   -0.08    0.00    0.00       7.06   -4.30   -0.30
#   7   -2.84   -0.68    0.21    0.79   -0.09    0.00    0.00      -2.62    3.59   -0.43
#   8   21.05   -2.24    3.21   -5.81    0.21    0.00    0.00      16.42  -19.92    0.73
#   9  -29.27   -0.34    0.40    5.80    0.19    0.00    0.00     -23.23   17.38    0.57
#  10  -15.64   -0.03    0.00    4.82    0.14    0.00    0.00     -10.71   19.27    0.57
#  11    0.21   -0.61    0.07    0.15   -0.11    0.00    0.00      -0.28    0.55   -0.40
#  12    4.19   -0.64    0.06   -1.80   -0.08    0.00    0.00       1.74   -5.72   -0.24
#  13   -1.87   -0.69    0.05    0.70   -0.14    0.00    0.00      -1.96    1.90   -0.38
#  14   11.33   -1.24    0.10   -6.31    0.69    0.00    0.00       4.56  -15.39    1.68
#  15   -4.90   -1.28    0.12    3.04   -0.76    0.00    0.00      -3.77    8.17   -2.03
#  16    1.89   -1.50    0.37   -0.95   -0.15    0.00    0.00      -0.34   -2.80   -0.45
#  17   -0.70   -2.00    0.67   -0.37   -0.11    0.00    0.00      -2.51   -1.02   -0.31
#  18   -1.23   -3.68    3.44    2.06    0.16    0.00    0.00       0.75    5.74    0.44
#  19    1.05   -1.52    0.19   -0.28   -0.18    0.00    0.00      -0.74   -0.64   -0.41
#  20    0.26   -2.01    0.46   -0.12   -0.24    0.00    0.00      -1.66   -0.24   -0.46
#  21    1.27   -2.83    0.95   -0.55   -0.28    0.00    0.00      -1.44   -0.91   -0.47
#  22    0.31   -2.93    0.92   -0.44   -0.29    0.00    0.00      -2.44   -0.72   -0.47
#  23    1.56   -2.09    0.62   -1.03   -0.25    0.00    0.00      -1.19   -1.87   -0.46
#  24   -1.61   -1.66    0.41    0.95   -0.33    0.00    0.00      -2.24    2.07   -0.72
#  25    7.15   -1.56    0.24   -4.34    0.45    0.00    0.00       1.95   -9.64    1.01
#  26  -10.43   -4.37    4.11    3.04   -0.26    0.00    0.00      -7.90    9.56   -0.81
#  27   -2.64   -0.08    0.00    0.68   -0.02    0.00    0.00      -2.05    9.77   -0.28
#  28   -4.35   -0.18    0.03    1.16   -0.04    0.00    0.00      -3.38    7.01   -0.26
#  29   -4.50   -0.20    0.01    1.75   -0.06    0.00    0.00      -3.00    8.34   -0.28
#  30   -2.60   -0.10    0.00    0.68   -0.03    0.00    0.00      -2.05    7.19   -0.28
#  31   -2.10   -0.15    0.01    0.54   -0.04    0.00    0.00      -1.75    3.61   -0.28
#  32   -3.55   -0.32    0.07    1.38   -0.09    0.00    0.00      -2.52    4.19   -0.28
#  33   -1.61   -0.33    0.07    1.04   -0.08    0.00    0.00      -0.90    3.74   -0.27
#  34   -0.76   -0.22    0.03    0.71   -0.06    0.00    0.00      -0.30    3.44   -0.27
#  35   -7.43   -0.02    0.00    2.98    0.17    0.00    0.00      -4.30    9.86    0.57
#  36   -0.57   -0.28    0.10    0.09   -0.05    0.00    0.00      -0.72    0.49   -0.28
#  37   -1.62   -0.69    0.59   -0.25   -0.11    0.00    0.00      -2.08   -0.59   -0.27
#  38   -1.30   -0.98    0.74    0.52   -0.17    0.00    0.00      -1.19    0.87   -0.28
#  39    0.29   -1.23    1.42    1.66   -0.17    0.00    0.00       1.97    2.67   -0.28
#  40   -1.61   -0.52    0.26    2.19   -0.14    0.00    0.00       0.18    4.55   -0.28
#  41   -6.31   -0.02    0.00    3.89    0.16    0.00    0.00      -2.29   11.02    0.46

@<TRIPOS>MOLECULE
          T541333        70
   41    43     0     0     0



@<TRIPOS>ATOM
      1 Br1         7.7802    -4.8521    86.7665 Br         1           0.1359
      2 C1          6.7805    -5.4766    88.2450 C.2        1           0.0600
      3 N1          5.5236    -5.8464    88.2803 N.2        1          -0.4719
      4 C2          4.9627    -6.2627    89.3991 C.2        1           0.1272
      5 Br2         3.1499    -6.7981    89.4568 Br         1           0.0526
      6 C3          5.7465    -6.2897    90.5074 C.2        1          -0.3016
      7 C4          5.4086    -6.7085    91.9150 C.3        1           0.1000
      8 N2          4.9240    -5.5447    92.6692 N.4        1          -0.5122
      9 H1          5.6420    -4.8362    92.6923 H          1           0.4313
     10 H2          4.0995    -5.1733    92.2215 H          1           0.4314
     11 C5          4.5944    -5.9529    94.0412 C.3        1          -0.0074
     12 C6          5.8447    -6.5159    94.7200 C.3        1          -0.1626
     13 C7          5.5014    -6.9411    96.1492 C.3        1           0.1089
     14 N3          6.6985    -7.4802    96.7992 N.pl3      1          -0.7354
     15 C8          6.9815    -8.8214    96.7133 C.2        1           0.4734
     16 C9          6.4080    -9.5600    95.7052 C.2        1          -0.3965
     17 C10         6.6835   -10.9326    95.5977 C.2        1           0.4273
     18 O1          6.1846   -11.6060    94.7093 O.2        1          -0.5032
     19 C11         7.5936   -11.5374    96.5888 C.ar       1          -0.1890
     20 C12         7.9125   -12.8944    96.5430 C.ar       1          -0.0310
     21 C13         8.7661   -13.4250    97.4846 C.ar       1          -0.1500
     22 C14         9.3078   -12.6176    98.4746 C.ar       1          -0.0586
     23 C15         9.0013   -11.2756    98.5323 C.ar       1          -0.1718
     24 C16         8.1413   -10.7199    97.5902 C.ar       1           0.1899
     25 N4          7.8252    -9.3769    97.6251 N.pl3      1          -0.6280
     26 S1          7.2912    -5.6996    89.8333 S.3        1           0.2965
     27 H3          4.6330    -7.4739    91.8901 H          1           0.1596
     28 H4          6.2994    -7.1095    92.3986 H          1           0.1585
     29 H5          4.2349    -5.0894    94.6008 H          1           0.1432
     30 H6          3.8188    -6.7183    94.0161 H          1           0.1425
     31 H7          6.2042    -7.3796    94.1606 H          1           0.1020
     32 H8          6.6204    -5.7506    94.7452 H          1           0.1021
     33 H9          5.1418    -6.0774    96.7087 H          1           0.0778
     34 H10         4.7257    -7.7064    96.1241 H          1           0.0777
     35 H11         7.2912    -6.8899    97.2902 H          1           0.4248
     36 H12         5.7458    -9.0847    94.9966 H          1           0.1449
     37 H13         7.4922   -13.5254    95.7739 H          1           0.1421
     38 H14         9.0150   -14.4754    97.4523 H          1           0.1347
     39 H15         9.9760   -13.0454    99.2073 H          1           0.1351
     40 H16         9.4284   -10.6559    99.3069 H          1           0.1301
     41 H17         8.2101    -8.8171    98.3173 H          1           0.4095
@<TRIPOS>BOND
     1    1    2 1
     2    2   26 1
     3    2    3 2
     4    3    4 1
     5    4    5 1
     6    4    6 2
     7    6    7 1
     8    6   26 1
     9    7    8 1
    10    7   27 1
    11    7   28 1
    12    8    9 1
    13    8   10 1
    14    8   11 1
    15   11   12 1
    16   11   29 1
    17   11   30 1
    18   12   13 1
    19   12   31 1
    20   12   32 1
    21   13   14 1
    22   13   33 1
    23   13   34 1
    24   14   15 1
    25   14   35 1
    26   15   25 1
    27   15   16 2
    28   16   17 1
    29   16   36 1
    30   17   18 2
    31   17   19 1
    32   19   24 ar
    33   19   20 ar
    34   20   21 ar
    35   20   37 1
    36   21   22 ar
    37   21   38 1
    38   22   23 ar
    39   22   39 1
    40   23   24 ar
    41   23   40 1
    42   24   25 1
    43   25   41 1
##########                 Name:              T368824
##########          Protonation:                   94
##########               SMILES:   c1cc(c(cc1/C=C/C(=O)NCCCCC[NH+]2CCCN(CC2)C(=O)Nc3ccc(c(c3)C(F)(F)F)Cl)Cl)Cl
##########            Long Name:   4-dichlorophenyl)prop-2-enoyl]amino]pentyl]-1,4-diazepan-4-ium-1-carboxamide
##########          FlexRecCode: 1
##########               Number:                   80
##########   Ligand Source File: /raidb/db2/rgc/tcams/tcams-0000201.db2.gz
##########           GlobalRank: 200
##########                 Rank:                    1
##########               Setnum:                  133
##########             Matchnum:                  155
##########                Cloud:                    1
##########        Electrostatic:           -42.011272
##########        Van der Waals:           -28.572079
##########  Ligand Polar Desolv:             8.614065
########## Ligand Apolar Desolv:            -4.376735
##########      Internal Energy:             0.000000
##########      Receptor Energy: 0.0
########## Receptor Desolvation:             0.000000
########## Receptor Hydrophobic:             0.000000
##########         Total Energy: -66.35
##########        Ligand Charge:             1.000000
##########            Arbitrary:    +999.9990
##########     heavy atom count:   39
##########           pose count:    1
##########        Ligand Energy:             0.000000
# num electro vdwattr vdwrepu polsolv apolsol rdesolv rhydroe totalscore fullpol fullapo
#   1    1.44   -1.20    0.17   -0.59   -0.26    0.00    0.00      -0.44   -0.99   -0.44
#   2   -3.58   -1.03    0.11    1.16   -0.03    0.00    0.00      -3.37    2.23   -0.06
#   3    1.48   -0.59    0.03   -0.21   -0.19    0.00    0.00       0.52   -0.48   -0.45
#   4    0.15   -2.06    1.08   -0.29   -0.23    0.00    0.00      -1.35   -0.56   -0.45
#   5    1.27   -1.64    0.38   -0.61   -0.18    0.00    0.00      -0.78   -1.27   -0.37
#   6    0.77   -1.49    0.24   -0.37   -0.17    0.00    0.00      -1.02   -0.96   -0.44
#   7   -2.18   -1.65    0.22    1.26   -0.34    0.00    0.00      -2.69    2.50   -0.68
#   8   10.75   -1.60    0.21   -5.67    0.80    0.00    0.00       4.49  -11.79    1.67
#   9   -9.89   -1.28    0.12    5.08   -0.83    0.00    0.00      -6.80   12.36   -2.02
#  10    3.69   -1.99    0.48   -3.46    0.14    0.00    0.00      -1.15   -8.16    0.32
#  11   13.12   -1.09    0.09   -5.48    0.55    0.00    0.00       7.18  -14.48    1.44
#  12   -1.99   -0.68    0.04    0.72   -0.16    0.00    0.00      -2.07    2.06   -0.46
#  13    3.81   -0.49    0.02   -1.23   -0.07    0.00    0.00       2.04   -4.52   -0.24
#  14    0.23   -0.41    0.02   -0.07   -0.08    0.00    0.00      -0.30   -0.33   -0.36
#  15   12.26   -1.28    0.87   -3.08    0.05    0.00    0.00       8.82  -11.72    0.18
#  16  -21.34   -0.09    0.02    4.40    0.12    0.00    0.00     -16.89   17.20    0.45
#  17    0.52   -0.58    0.12   -0.01   -0.08    0.00    0.00      -0.03   -0.05   -0.34
#  18    3.85   -0.64    0.13   -0.96   -0.05    0.00    0.00       2.34   -4.22   -0.20
#  19    1.71   -0.26    0.01   -0.44   -0.03    0.00    0.00       0.99   -3.00   -0.22
#  20    0.76   -0.36    0.02   -0.45   -0.04    0.00    0.00      -0.07   -2.43   -0.22
#  21   -0.38   -0.24    0.01    0.20   -0.06    0.00    0.00      -0.47    1.42   -0.42
#  22    4.31   -0.60    0.07   -1.58    0.40    0.00    0.00       2.62   -9.11    2.33
#  23   -2.48   -0.61    0.18    0.60   -0.09    0.00    0.00      -2.40    4.26   -0.65
#  24    1.25   -0.21    0.01   -0.16    0.04    0.00    0.00       0.93   -1.58    0.39
#  25    1.00   -0.96    0.53   -0.35   -0.08    0.00    0.00       0.14   -1.94   -0.43
#  26    0.02   -0.45    0.09   -0.04   -0.06    0.00    0.00      -0.45   -0.34   -0.44
#  27    0.13   -0.38    0.02   -0.06   -0.06    0.00    0.00      -0.35   -0.44   -0.41
#  28    0.19   -0.66    0.10   -0.14   -0.09    0.00    0.00      -0.61   -0.68   -0.43
#  29    0.07   -0.94    0.40   -0.07   -0.06    0.00    0.00      -0.60   -0.34   -0.30
#  30    0.09   -3.95    3.75   -0.09   -0.28    0.00    0.00      -0.48   -0.32   -0.95
#  31    0.03   -0.47    0.06   -0.04   -0.04    0.00    0.00      -0.46   -0.30   -0.29
#  32    0.03   -0.69    0.06   -0.04   -0.13    0.00    0.00      -0.77   -0.27   -0.95
#  33    0.12   -0.25    0.01   -0.07   -0.05    0.00    0.00      -0.25   -0.71   -0.46
#  34    0.11   -0.23    0.01   -0.06   -0.04    0.00    0.00      -0.22   -0.65   -0.45
#  35    1.42   -1.30    0.61   -0.13   -0.13    0.00    0.00       0.47   -0.39   -0.39
#  36   -3.48   -1.09    0.19    1.04   -0.18    0.00    0.00      -3.53    2.42   -0.42
#  37    1.47   -2.47    0.57   -0.48   -0.23    0.00    0.00      -1.15   -0.83   -0.40
#  38    1.52   -3.05    1.51   -0.48   -0.26    0.00    0.00      -0.77   -0.84   -0.46
#  39    0.03   -2.23    0.84   -0.19   -0.16    0.00    0.00      -1.71   -0.35   -0.30
#  40    0.10   -7.84    8.42   -0.26   -0.56    0.00    0.00      -0.13   -0.42   -0.91
#  41   -0.97   -0.23    0.02    0.62   -0.06    0.00    0.00      -0.62    2.66   -0.25
#  42   -7.25   -0.04    0.00    3.69    0.16    0.00    0.00      -3.44    9.57    0.41
#  43   -1.34   -0.20    0.01    0.54   -0.04    0.00    0.00      -1.03    2.44   -0.20
#  44   -2.45   -0.37    0.07    0.60   -0.08    0.00    0.00      -2.23    2.09   -0.28
#  45   -2.61   -0.11    0.00    0.43   -0.03    0.00    0.00      -2.32    4.38   -0.28
#  46   -3.29   -0.24    0.03    1.08   -0.06    0.00    0.00      -2.48    4.79   -0.25
#  47   -1.29   -0.15    0.02    0.40   -0.03    0.00    0.00      -1.05    3.25   -0.24
#  48   -2.07   -0.08    0.00    0.47   -0.02    0.00    0.00      -1.70    6.13   -0.21
#  49   -3.72   -0.23    0.04    1.07   -0.06    0.00    0.00      -2.89    5.10   -0.27
#  50   -1.96   -0.07    0.00    0.29   -0.02    0.00    0.00      -1.76    4.18   -0.27
#  51   -1.73   -0.11    0.01    0.40   -0.02    0.00    0.00      -1.45    3.76   -0.21
#  52   -3.77   -0.70    0.67    1.05   -0.08    0.00    0.00      -2.84    3.85   -0.28
#  53   -1.38   -0.08    0.00    0.11   -0.02    0.00    0.00      -1.37    1.45   -0.28
#  54   -0.73   -0.03    0.00    0.05   -0.01    0.00    0.00      -0.72    1.40   -0.28
#  55   -0.24   -0.08    0.00    0.19   -0.03    0.00    0.00      -0.15    2.12   -0.28
#  56   -0.41   -0.27    0.07    0.43   -0.06    0.00    0.00      -0.24    2.07   -0.28
#  57   -0.19   -0.03    0.00    0.01   -0.01    0.00    0.00      -0.22    0.35   -0.28
#  58   -0.20   -0.09    0.00    0.03   -0.02    0.00    0.00      -0.28    0.35   -0.28
#  59   -3.43   -0.01    0.00    1.03    0.08    0.00    0.00      -2.34    7.51    0.56
#  60   -1.56   -0.23    0.07    0.52   -0.04    0.00    0.00      -1.23    2.76   -0.21
#  61   -0.25   -0.04    0.00    0.04   -0.01    0.00    0.00      -0.26    0.84   -0.26
#  62   -0.74   -0.14    0.01    0.40   -0.04    0.00    0.00      -0.50    2.32   -0.21
#  63   -0.14   -0.03    0.00    0.04   -0.01    0.00    0.00      -0.14    1.33   -0.28
#  64   -0.18   -0.03    0.00    0.06   -0.01    0.00    0.00      -0.16    1.89   -0.28
#  65   -2.55   -0.26    0.06    0.57   -0.05    0.00    0.00      -2.24    2.91   -0.28
#  66   -5.27   -1.13    2.74    2.29   -0.10    0.00    0.00      -1.47    6.21   -0.26
#  67   -4.20   -0.45    0.16    2.10   -0.12    0.00    0.00      -2.51    4.98   -0.28
#  68   -3.68   -0.45    0.10    0.56   -0.11    0.00    0.00      -3.57    1.27   -0.24
#  69   -3.71   -0.68    0.17    1.26   -0.13    0.00    0.00      -3.09    2.14   -0.22
#  70   -3.07   -1.25    2.24    0.97   -0.17    0.00    0.00      -1.27    1.64   -0.28

@<TRIPOS>MOLECULE
          T368824        94
   70    72     0     0     0



@<TRIPOS>ATOM
      1 F1          8.7112   -13.2571    97.4412 F          1          -0.1741
      2 C1          7.9925   -12.2198    96.8373 C.3        1           0.5099
      3 F2          8.4275   -12.0579    95.5175 F          1          -0.1648
      4 F3          6.6287   -12.5319    96.8439 F          1          -0.1654
      5 C2          8.2187   -10.9407    97.6013 C.ar       1          -0.1540
      6 C3          7.6020    -9.7743    97.1921 C.ar       1          -0.0848
      7 C4          7.8104    -8.5963    97.8967 C.ar       1           0.1530
      8 N1          7.1862    -7.4129    97.4844 N.am       1          -0.6776
      9 C5          5.9920    -7.4626    96.8615 C.2        1           0.7036
     10 O1          5.2122    -8.3612    97.1126 O.2        1          -0.5497
     11 N2          5.6622    -6.5165    95.9600 N.am       1          -0.6351
     12 C6          4.2396    -6.1563    95.7942 C.3        1           0.0939
     13 C7          3.8851    -5.9716    94.3073 C.3        1          -0.1569
     14 C8          4.5853    -7.0324    93.4873 C.3        1          -0.0118
     15 N3          5.8583    -6.5046    93.0017 N.4        1          -0.3665
     16 H1          5.7471    -5.5174    92.8255 H          1           0.4175
     17 C9          6.1800    -7.1669    91.7306 C.3        1          -0.0203
     18 C10         5.3876    -6.5103    90.5984 C.3        1          -0.1468
     19 C11         5.7226    -7.2001    89.2745 C.3        1          -0.1155
     20 C12         4.9302    -6.5434    88.1424 C.3        1          -0.1325
     21 C13         5.2652    -7.2333    86.8185 C.3        1           0.1175
     22 N4          6.6996    -7.1037    86.5497 N.am       1          -0.7315
     23 C14         7.4636    -8.2068    86.4224 C.2        1           0.5499
     24 O2          6.9620    -9.3102    86.5306 O.2        1          -0.5376
     25 C15         8.8968    -8.0774    86.1540 C.2        1          -0.2155
     26 C16         9.6611    -9.1810    86.0266 C.2        1          -0.0083
     27 C17        11.1020    -9.0510    85.7568 C.ar       1          -0.0653
     28 C18        11.7640    -7.8514    86.0382 C.ar       1          -0.0828
     29 C19        13.1146    -7.7371    85.7831 C.ar       1          -0.0344
     30 Cl1        13.9392    -6.2497    86.1320 Cl         1          -0.0403
     31 C20        13.8153    -8.8079    85.2489 C.ar       1          -0.0205
     32 Cl2        15.5152    -8.6558    84.9307 Cl         1          -0.0364
     33 C21        13.1654    -9.9984    84.9685 C.ar       1          -0.0982
     34 C22        11.8166   -10.1280    85.2230 C.ar       1          -0.0750
     35 C23         6.9501    -6.6801    93.8808 C.3        1          -0.0466
     36 C24         6.7164    -5.8854    95.1930 C.3        1           0.1143
     37 C25         8.6387    -8.5939    99.0114 C.ar       1          -0.0755
     38 C26         9.2528    -9.7626    99.4163 C.ar       1          -0.0884
     39 C27         9.0392   -10.9367    98.7153 C.ar       1          -0.0028
     40 Cl3         9.8074   -12.4057    99.2308 Cl         1          -0.0294
     41 H2          6.9586    -9.7787    96.3248 H          1           0.1520
     42 H3          7.6132    -6.5572    97.6469 H          1           0.4111
     43 H4          3.6188    -6.9477    96.2143 H          1           0.0927
     44 H5          4.0416    -5.2264    96.3272 H          1           0.0957
     45 H6          2.8068    -6.0642    94.1766 H          1           0.1285
     46 H7          4.2079    -4.9846    93.9766 H          1           0.0950
     47 H8          4.7682    -7.9100    94.1074 H          1           0.1286
     48 H9          3.9590    -7.3095    92.6394 H          1           0.1395
     49 H10         7.2471    -7.0706    91.5304 H          1           0.1349
     50 H11         5.9160    -8.2226    91.7940 H          1           0.1315
     51 H12         4.3205    -6.6064    90.7985 H          1           0.0875
     52 H13         5.6516    -5.4545    90.5349 H          1           0.0895
     53 H14         6.7897    -7.1038    89.0745 H          1           0.0800
     54 H15         5.4586    -8.2557    89.3379 H          1           0.0789
     55 H16         3.8631    -6.6396    88.3424 H          1           0.0743
     56 H17         5.1941    -5.4877    88.0790 H          1           0.0751
     57 H18         5.0014    -8.2889    86.8819 H          1           0.0705
     58 H19         4.7008    -6.7655    86.0119 H          1           0.0702
     59 H20         7.0994    -6.2242    86.4633 H          1           0.4026
     60 H21         9.3419    -7.0982    86.0578 H          1           0.1314
     61 H22         9.2160   -10.1603    86.1227 H          1           0.1444
     62 H23        11.2190    -7.0168    86.4540 H          1           0.1459
     63 H24        13.7173   -10.8284    84.5527 H          1           0.1506
     64 H25        11.3123   -11.0585    85.0075 H          1           0.1475
     65 H26         7.0593    -7.7393    94.1137 H          1           0.1314
     66 H27         7.8611    -6.3224    93.4009 H          1           0.1471
     67 H28         6.4261    -4.8628    94.9515 H          1           0.1034
     68 H29         7.6339    -5.8713    95.7813 H          1           0.1346
     69 H30         8.8027    -7.6788    99.5610 H          1           0.1562
     70 H31         9.8973    -9.7613   100.2829 H          1           0.1541
@<TRIPOS>BOND
     1    1    2 1
     2    2    3 1
     3    2    4 1
     4    2    5 1
     5    5   39 ar
     6    5    6 ar
     7    6    7 ar
     8    6   41 1
     9    7    8 1
    10    7   37 ar
    11    8    9 am
    12    8   42 1
    13    9   10 2
    14    9   11 am
    15   11   36 1
    16   11   12 1
    17   12   13 1
    18   12   43 1
    19   12   44 1
    20   13   14 1
    21   13   45 1
    22   13   46 1
    23   14   15 1
    24   14   47 1
    25   14   48 1
    26   15   16 1
    27   15   17 1
    28   15   35 1
    29   17   18 1
    30   17   49 1
    31   17   50 1
    32   18   19 1
    33   18   51 1
    34   18   52 1
    35   19   20 1
    36   19   53 1
    37   19   54 1
    38   20   21 1
    39   20   55 1
    40   20   56 1
    41   21   22 1
    42   21   57 1
    43   21   58 1
    44   22   23 am
    45   22   59 1
    46   23   24 2
    47   23   25 1
    48   25   26 2
    49   25   60 1
    50   26   27 1
    51   26   61 1
    52   27   34 ar
    53   27   28 ar
    54   28   29 ar
    55   28   62 1
    56   29   30 1
    57   29   31 ar
    58   31   32 1
    59   31   33 ar
    60   33   34 ar
    61   33   63 1
    62   34   64 1
    63   35   36 1
    64   35   65 1
    65   35   66 1
    66   36   67 1
    67   36   68 1
    68   37   38 ar
    69   37   69 1
    70   38   39 ar
    71   38   70 1
    72   39   40 1
##########                 Name:              T539862
##########          Protonation:                   12
##########               SMILES:   CC[C@H]1C[NH+]2CCc3c4ccccc4[nH]c3[C@H]2C[C@@H]1CC5=[NH+]CCc6c5[nH]c7c6cccc7
##########            Long Name:   ethyl)-3-ethyl-2,3,4,5,6,7,12,12b-octahydro-1H-indolo[2,3-a]quinolizin-5-ium
##########          FlexRecCode: 1
##########               Number:                  153
##########   Ligand Source File: /raidb/db2/rgc/tcams/tcams-0001938.db2.gz
##########           GlobalRank: 201
##########                 Rank:                    1
##########               Setnum:                   27
##########             Matchnum:                 7157
##########                Cloud:                    1
##########        Electrostatic:           -40.234402
##########        Van der Waals:           -27.776360
##########  Ligand Polar Desolv:             6.311975
########## Ligand Apolar Desolv:            -4.588223
##########      Internal Energy:             0.000000
##########      Receptor Energy: 0.0
########## Receptor Desolvation:             0.000000
########## Receptor Hydrophobic:             0.000000
##########         Total Energy: -66.29
##########        Ligand Charge:             2.000000
##########            Arbitrary:    +999.9990
##########     heavy atom count:   33
##########           pose count:    1
##########        Ligand Energy:             0.000000
# num electro vdwattr vdwrepu polsolv apolsol rdesolv rhydroe totalscore fullpol fullapo
#   1    1.06   -0.36    0.01   -1.43   -0.05    0.00    0.00      -0.76   -6.13   -0.20
#   2    1.87   -0.33    0.01   -1.03   -0.04    0.00    0.00       0.47   -5.26   -0.21
#   3    1.58   -0.32    0.01   -0.72   -0.03    0.00    0.00       0.51   -3.80   -0.14
#   4    0.47   -0.76    0.16   -0.25   -0.09    0.00    0.00      -0.46   -0.94   -0.33
#   5    9.69   -0.66    0.07   -4.23    0.04    0.00    0.00       4.91  -17.62    0.18
#   6   -8.47   -0.01    0.00    1.95    0.04    0.00    0.00      -6.49   19.63    0.38
#   7    0.33   -1.24    0.75    0.31   -0.16    0.00    0.00      -0.02    0.77   -0.40
#   8    1.91   -0.90    0.13   -1.31   -0.11    0.00    0.00      -0.28   -3.14   -0.27
#   9    2.07   -0.99    0.07   -2.17   -0.14    0.00    0.00      -1.17   -6.47   -0.43
#  10    0.15   -0.92    0.11    1.05   -0.19    0.00    0.00       0.21    3.85   -0.68
#  11    2.45   -1.42    0.40   -5.53    0.32    0.00    0.00      -3.78  -18.90    1.08
#  12   -0.75   -1.30    0.16    0.70   -0.27    0.00    0.00      -1.45    2.03   -0.77
#  13    0.76   -1.50    0.21   -1.11   -0.19    0.00    0.00      -1.83   -2.80   -0.48
#  14    0.61   -2.14    1.15   -1.38   -0.22    0.00    0.00      -1.97   -2.91   -0.46
#  15    1.84   -2.27    1.06   -1.70   -0.24    0.00    0.00      -1.31   -3.24   -0.46
#  16    0.87   -1.64    0.19   -1.04   -0.24    0.00    0.00      -1.86   -2.05   -0.48
#  17    1.26   -1.22    0.10   -1.25   -0.17    0.00    0.00      -1.27   -3.34   -0.44
#  18   -1.76   -0.42    0.03    1.23   -0.04    0.00    0.00      -0.96    5.58   -0.18
#  19    0.58   -0.71    0.25   -1.57   -0.03    0.00    0.00      -1.49   -8.10   -0.18
#  20    0.75   -0.26    0.01   -0.45   -0.02    0.00    0.00       0.03   -3.21   -0.14
#  21    1.48   -0.19    0.00   -0.85   -0.02    0.00    0.00       0.42   -7.52   -0.18
#  22   -2.93   -0.31    0.01    2.81   -0.08    0.00    0.00      -0.50   20.75   -0.62
#  23    1.82   -0.25    0.00   -2.54    0.14    0.00    0.00      -0.82  -23.00    1.29
#  24   -1.12    0.00    0.00    0.97    0.02    0.00    0.00      -0.13   24.68    0.53
#  25   -0.09   -0.27    0.01    0.35   -0.08    0.00    0.00      -0.07    2.24   -0.53
#  26    0.16   -0.37    0.03   -0.60   -0.05    0.00    0.00      -0.82   -3.22   -0.27
#  27    0.03   -0.82    0.15   -0.74   -0.09    0.00    0.00      -1.47   -3.43   -0.43
#  28    0.24   -0.58    0.04    0.08   -0.15    0.00    0.00      -0.37    0.39   -0.76
#  29    8.69   -1.04    0.16   -4.32    0.29    0.00    0.00       3.78  -16.92    1.13
#  30   -1.25   -1.82    1.11    0.69   -0.23    0.00    0.00      -1.50    2.27   -0.77
#  31    3.36   -2.41    1.65   -1.12   -0.19    0.00    0.00       1.28   -2.86   -0.48
#  32    0.59   -2.51    1.03   -1.27   -0.21    0.00    0.00      -2.37   -2.78   -0.46
#  33    0.62   -2.25    0.63   -1.54   -0.21    0.00    0.00      -2.75   -3.43   -0.46
#  34    0.14   -2.12    1.01   -0.69   -0.19    0.00    0.00      -1.85   -1.74   -0.48
#  35    0.44   -1.62    0.73   -1.03   -0.12    0.00    0.00      -1.60   -3.63   -0.43
#  36   -0.57   -0.17    0.01    0.79   -0.04    0.00    0.00       0.01    3.89   -0.22
#  37   -0.32   -0.08    0.00    0.10   -0.02    0.00    0.00      -0.32    1.25   -0.28
#  38   -0.13   -0.10    0.00   -0.06   -0.03    0.00    0.00      -0.32   -0.52   -0.28
#  39   -1.11   -0.12    0.00    0.37   -0.02    0.00    0.00      -0.87    3.42   -0.18
#  40   -1.18   -0.12    0.01    0.16   -0.03    0.00    0.00      -1.15    1.59   -0.28
#  41   -1.74   -0.12    0.01    0.84   -0.03    0.00    0.00      -1.04    7.04   -0.28
#  42   -5.21   -0.42    0.25    2.64   -0.05    0.00    0.00      -2.78   12.14   -0.22
#  43   -5.41   -0.33    0.07    2.14   -0.06    0.00    0.00      -3.60    7.85   -0.22
#  44   -6.41   -0.96    2.75    2.66   -0.08    0.00    0.00      -2.04    8.86   -0.28
#  45   -6.48   -0.49    0.30    3.17   -0.10    0.00    0.00      -3.61    8.48   -0.27
#  46   -3.42   -0.41    0.12    1.11   -0.12    0.00    0.00      -2.72    2.59   -0.28
#  47   -2.41   -0.34    0.09    0.75   -0.07    0.00    0.00      -1.98    2.94   -0.28
#  48   -0.30   -0.03    0.00    3.70    0.12    0.00    0.00       3.49   18.11    0.58
#  49   -0.67   -0.28    0.02    1.11   -0.08    0.00    0.00       0.11    3.81   -0.28
#  50   -1.09   -0.43    0.17    0.53   -0.11    0.00    0.00      -0.93    1.30   -0.28
#  51   -2.65   -0.60    0.26    0.40   -0.13    0.00    0.00      -2.72    0.88   -0.28
#  52   -2.35   -0.39    0.06    1.17   -0.13    0.00    0.00      -1.64    2.50   -0.28
#  53   -2.86   -0.12    0.01    1.67   -0.02    0.00    0.00      -1.32   13.67   -0.20
#  54    0.09   -0.35    0.22    1.09   -0.04    0.00    0.00       1.01    6.12   -0.22
#  55    0.68   -0.52    0.60    0.84   -0.04    0.00    0.00       1.55    4.42   -0.23
#  56   -0.36   -0.07    0.00    0.37   -0.02    0.00    0.00      -0.08    4.92   -0.28
#  57   -2.74   -0.08    0.00    0.72   -0.02    0.00    0.00      -2.12    9.24   -0.27
#  58   -0.72   -0.04    0.00    0.44   -0.01    0.00    0.00      -0.32   11.94   -0.18
#  59   -0.16   -0.05    0.00    0.23   -0.01    0.00    0.00       0.01    5.08   -0.28
#  60   -0.22   -0.16    0.02    1.39   -0.04    0.00    0.00       0.99    8.65   -0.28
#  61   -0.22   -0.05    0.00    0.14   -0.01    0.00    0.00      -0.15    3.06   -0.28
#  62   -0.16   -0.22    0.04    0.85   -0.05    0.00    0.00       0.45    4.47   -0.28
#  63  -11.63   -0.02    0.00    3.32    0.11    0.00    0.00      -8.21   17.13    0.59
#  64   -5.02   -0.38    0.08    1.22   -0.09    0.00    0.00      -4.20    3.66   -0.28
#  65   -3.84   -0.48    0.13    0.63   -0.11    0.00    0.00      -3.68    1.58   -0.28
#  66   -0.72   -0.48    0.14    0.56   -0.13    0.00    0.00      -0.63    1.25   -0.28
#  67   -0.37   -0.39    0.11    1.00   -0.09    0.00    0.00       0.26    3.15   -0.28

@<TRIPOS>MOLECULE
          T539862        12
   67    73     0     0     0



@<TRIPOS>ATOM
      1 C1          0.7057    -7.5274    92.7412 C.3        1          -0.1687
      2 C2          1.8819    -6.6851    93.2390 C.3        1          -0.1353
      3 C3          2.9383    -6.5824    92.1369 C.3        1          -0.1031
      4 C4          4.1147    -5.7385    92.6351 C.3        1          -0.0156
      5 N1          4.7068    -6.3797    93.8141 N.4        1          -0.3767
      6 H1          3.9876    -6.5192    94.5079 H          1           0.4287
      7 C5          5.7606    -5.5331    94.3823 C.3        1          -0.0087
      8 C6          6.1307    -6.0464    95.7815 C.3        1          -0.0764
      9 C7          6.3536    -7.5350    95.6893 C.2        1          -0.1279
     10 C8          5.9583    -8.2818    94.6314 C.2        1          -0.0134
     11 N2          6.2982    -9.5906    94.8371 N.pl3      1          -0.5686
     12 C9          6.9279    -9.7205    96.0422 C.ar       1           0.1172
     13 C10         7.4612   -10.8259    96.7015 C.ar       1          -0.1334
     14 C11         8.0423   -10.5994    97.9370 C.ar       1          -0.0695
     15 C12         8.0989    -9.3380    98.5067 C.ar       1          -0.1308
     16 C13         7.5815    -8.2309    97.8810 C.ar       1          -0.0592
     17 C14         6.9889    -8.4298    96.6298 C.ar       1          -0.1051
     18 C15         5.2647    -7.6852    93.4341 C.3        1           0.1101
     19 C16         4.1303    -8.6077    92.9858 C.3        1          -0.1580
     20 C17         3.4329    -7.9845    91.7721 C.3        1          -0.0923
     21 C18         4.4210    -7.8905    90.6078 C.3        1          -0.1356
     22 C19         3.7355    -7.2740    89.4157 C.2        1           0.3907
     23 N3          2.4590    -7.4275    89.2187 N.pl3      1          -0.5606
     24 H2          1.9525    -7.9680    89.8448 H          1           0.4272
     25 C20         1.7597    -6.8177    88.0929 C.3        1           0.0562
     26 C21         2.5809    -6.6860    86.8069 C.3        1          -0.0899
     27 C22         3.9511    -6.1935    87.1990 C.2        1          -0.0119
     28 C23         4.4847    -6.4720    88.4366 C.2        1          -0.0467
     29 N4          5.7302    -5.9029    88.5346 N.pl3      1          -0.5510
     30 C24         6.0022    -5.2503    87.3645 C.ar       1           0.1709
     31 C25         7.1134    -4.5185    86.9510 C.ar       1          -0.1467
     32 C26         7.0708    -3.9755    85.6789 C.ar       1          -0.0327
     33 C27         5.9789    -4.1428    84.8417 C.ar       1          -0.1350
     34 C28         4.8709    -4.8565    85.2192 C.ar       1          -0.0402
     35 C29         4.8833    -5.4312    86.4982 C.ar       1          -0.1280
     36 H3         -0.0469    -7.6004    93.5263 H          1           0.0552
     37 H4          0.2679    -7.0559    91.8612 H          1           0.0736
     38 H5          1.0578    -8.5256    92.4813 H          1           0.0773
     39 H6          1.5298    -5.6868    93.4989 H          1           0.0589
     40 H7          2.3197    -7.1565    94.1190 H          1           0.0972
     41 H8          2.5005    -6.1113    91.2569 H          1           0.1355
     42 H9          4.8650    -5.6600    91.8483 H          1           0.1337
     43 H10         3.7608    -4.7426    92.9017 H          1           0.1524
     44 H11         6.6397    -5.5662    93.7389 H          1           0.1340
     45 H12         5.4020    -4.5063    94.4551 H          1           0.1466
     46 H13         7.0431    -5.5578    96.1235 H          1           0.1289
     47 H14         5.3178    -5.8381    96.4772 H          1           0.1065
     48 H15         6.1188   -10.3172    94.2201 H          1           0.4136
     49 H16         7.4225   -11.8145    96.2683 H          1           0.1363
     50 H17         8.4657   -11.4345    98.4754 H          1           0.1360
     51 H18         8.5645    -9.2217    99.4742 H          1           0.1335
     52 H19         7.6298    -7.2517    98.3340 H          1           0.1389
     53 H20         5.9763    -7.5541    92.6188 H          1           0.1354
     54 H21         4.5378    -9.5811    92.7127 H          1           0.0970
     55 H22         3.4131    -8.7255    93.7983 H          1           0.1227
     56 H23         2.5852    -8.6050    91.4813 H          1           0.1272
     57 H24         5.2689    -7.2710    90.8999 H          1           0.1417
     58 H25         4.7727    -8.8891    90.3483 H          1           0.1131
     59 H26         0.8752    -7.4163    87.8745 H          1           0.1265
     60 H27         1.4307    -5.8227    88.3925 H          1           0.1372
     61 H28         2.6616    -7.6565    86.3172 H          1           0.1365
     62 H29         2.1071    -5.9695    86.1359 H          1           0.1109
     63 H30         6.3179    -5.9547    89.3044 H          1           0.4312
     64 H31         7.9697    -4.3808    87.5946 H          1           0.1481
     65 H32         7.9156    -3.4022    85.3271 H          1           0.1455
     66 H33         6.0015    -3.6955    83.8589 H          1           0.1415
     67 H34         4.0268    -4.9792    84.5568 H          1           0.1475
@<TRIPOS>BOND
     1    1    2 1
     2    1   36 1
     3    1   37 1
     4    1   38 1
     5    2    3 1
     6    2   39 1
     7    2   40 1
     8    3   20 1
     9    3    4 1
    10    3   41 1
    11    4    5 1
    12    4   42 1
    13    4   43 1
    14    5    6 1
    15    5   18 1
    16    5    7 1
    17    7    8 1
    18    7   44 1
    19    7   45 1
    20    8    9 1
    21    8   46 1
    22    8   47 1
    23    9   17 1
    24    9   10 2
    25   10   11 1
    26   10   18 1
    27   11   12 1
    28   11   48 1
    29   12   17 ar
    30   12   13 ar
    31   13   14 ar
    32   13   49 1
    33   14   15 ar
    34   14   50 1
    35   15   16 ar
    36   15   51 1
    37   16   17 ar
    38   16   52 1
    39   18   19 1
    40   18   53 1
    41   19   20 1
    42   19   54 1
    43   19   55 1
    44   20   21 1
    45   20   56 1
    46   21   22 1
    47   21   57 1
    48   21   58 1
    49   22   28 1
    50   22   23 2
    51   23   24 1
    52   23   25 1
    53   25   26 1
    54   25   59 1
    55   25   60 1
    56   26   27 1
    57   26   61 1
    58   26   62 1
    59   27   35 1
    60   27   28 2
    61   28   29 1
    62   29   30 1
    63   29   63 1
    64   30   35 ar
    65   30   31 ar
    66   31   32 ar
    67   31   64 1
    68   32   33 ar
    69   32   65 1
    70   33   34 ar
    71   33   66 1
    72   34   35 ar
    73   34   67 1
##########                 Name:              T528698
##########          Protonation:                   98
##########               SMILES:   c1ccc2c(c1)c(=O)cc([nH]2)NCCC[NH2+]Cc3cc4c([nH]3)cc(cc4Cl)Cl
##########            Long Name:   hloro-1H-indol-2-yl)methyl-[3-[(4-oxo-1H-quinolin-2-yl)amino]propyl]ammonium
##########          FlexRecCode: 1
##########               Number:                    9
##########   Ligand Source File: /raidb/db2/rgc/tcams/tcams-0000449.db2.gz
##########           GlobalRank: 202
##########                 Rank:                    1
##########               Setnum:                  173
##########             Matchnum:                 6366
##########                Cloud:                    1
##########        Electrostatic:           -43.775333
##########        Van der Waals:           -32.198193
##########  Ligand Polar Desolv:            13.478470
########## Ligand Apolar Desolv:            -3.783031
##########      Internal Energy:             0.000000
##########      Receptor Energy: 0.0
########## Receptor Desolvation:             0.000000
########## Receptor Hydrophobic:             0.000000
##########         Total Energy: -66.28
##########        Ligand Charge:             1.000000
##########            Arbitrary:    +999.9990
##########     heavy atom count:   28
##########           pose count:    1
##########        Ligand Energy:             0.000000
# num electro vdwattr vdwrepu polsolv apolsol rdesolv rhydroe totalscore fullpol fullapo
#   1    0.12   -3.55    1.30   -0.34   -0.42    0.00    0.00      -2.90   -0.80   -0.99
#   2   -0.07   -1.44    0.31   -0.19   -0.10    0.00    0.00      -1.49   -0.58   -0.30
#   3    2.08   -1.53    0.30   -0.54   -0.17    0.00    0.00       0.16   -1.44   -0.45
#   4   -0.90   -1.45    0.28   -0.04   -0.11    0.00    0.00      -2.21   -0.12   -0.30
#   5    1.15   -3.74    1.56   -0.34   -0.41    0.00    0.00      -1.77   -0.83   -0.99
#   6    3.27   -1.55    0.43   -0.63   -0.13    0.00    0.00       1.38   -2.16   -0.43
#   7    3.88   -2.68    2.25   -1.45   -0.16    0.00    0.00       1.86   -4.73   -0.51
#   8    0.41   -1.42    0.58    0.83   -0.18    0.00    0.00       0.22    3.32   -0.71
#   9   -2.05   -0.69    0.21    0.83   -0.10    0.00    0.00      -1.79    3.76   -0.44
#  10   21.08   -2.26    3.28   -6.14    0.21    0.00    0.00      16.17  -21.03    0.73
#  11  -29.55   -0.35    0.42    6.51    0.19    0.00    0.00     -22.78   19.48    0.57
#  12  -15.56   -0.03    0.00    4.93    0.14    0.00    0.00     -10.52   19.67    0.57
#  13    0.19   -0.61    0.07    0.23   -0.11    0.00    0.00      -0.23    0.84   -0.40
#  14    4.18   -0.64    0.06   -1.82   -0.08    0.00    0.00       1.70   -5.79   -0.24
#  15   -1.87   -0.69    0.05    0.70   -0.14    0.00    0.00      -1.96    1.90   -0.38
#  16   11.33   -1.25    0.10   -6.39    0.69    0.00    0.00       4.49  -15.57    1.68
#  17   -4.90   -1.28    0.12    3.07   -0.76    0.00    0.00      -3.74    8.25   -2.03
#  18    1.89   -1.50    0.37   -0.97   -0.15    0.00    0.00      -0.36   -2.87   -0.45
#  19   -0.70   -2.00    0.67   -0.35   -0.11    0.00    0.00      -2.49   -0.97   -0.31
#  20   -1.22   -3.67    3.43    2.03    0.16    0.00    0.00       0.72    5.66    0.44
#  21    1.05   -1.52    0.19   -0.30   -0.18    0.00    0.00      -0.76   -0.67   -0.41
#  22    0.26   -2.01    0.46   -0.13   -0.24    0.00    0.00      -1.66   -0.25   -0.46
#  23    1.27   -2.83    0.95   -0.57   -0.28    0.00    0.00      -1.46   -0.94   -0.47
#  24    0.31   -2.93    0.92   -0.45   -0.29    0.00    0.00      -2.44   -0.73   -0.47
#  25    1.56   -2.09    0.62   -1.04   -0.25    0.00    0.00      -1.20   -1.89   -0.46
#  26   -1.61   -1.66    0.41    0.96   -0.33    0.00    0.00      -2.22    2.09   -0.72
#  27    7.15   -1.56    0.24   -4.38    0.45    0.00    0.00       1.91   -9.73    1.01
#  28   10.00   -0.76    0.07   -3.37    0.26    0.00    0.00       6.20  -14.44    1.12
#  29   -1.48   -1.10    0.23    0.48   -0.20    0.00    0.00      -2.06    1.89   -0.78
#  30    0.46   -1.25    0.36   -0.35   -0.12    0.00    0.00      -0.89   -1.37   -0.46
#  31   -3.92   -0.41    0.16    0.18   -0.09    0.00    0.00      -4.08    0.56   -0.28
#  32   -6.51   -0.80    0.78    1.55   -0.09    0.00    0.00      -5.08    4.68   -0.28
#  33   -2.39   -0.08    0.00    0.59   -0.02    0.00    0.00      -1.89    8.47   -0.28
#  34   -4.39   -0.18    0.03    1.42   -0.05    0.00    0.00      -3.16    8.58   -0.28
#  35   -4.35   -0.20    0.01    1.61   -0.06    0.00    0.00      -2.99    7.65   -0.28
#  36   -2.58   -0.10    0.00    0.71   -0.03    0.00    0.00      -2.00    7.50   -0.28
#  37   -2.10   -0.15    0.01    0.57   -0.04    0.00    0.00      -1.71    3.81   -0.28
#  38   -3.48   -0.32    0.07    1.29   -0.09    0.00    0.00      -2.53    3.91   -0.28
#  39   -1.59   -0.33    0.07    0.99   -0.08    0.00    0.00      -0.93    3.55   -0.27
#  40   -0.76   -0.22    0.03    0.72   -0.06    0.00    0.00      -0.29    3.50   -0.27
#  41   -7.43   -0.03    0.00    3.01    0.17    0.00    0.00      -4.27    9.95    0.57
#  42   -0.58   -0.28    0.10    0.10   -0.05    0.00    0.00      -0.72    0.52   -0.28
#  43   -1.62   -0.69    0.59   -0.24   -0.11    0.00    0.00      -2.07   -0.57   -0.27
#  44   -1.31   -0.97    0.74    0.53   -0.17    0.00    0.00      -1.18    0.89   -0.28
#  45    0.29   -1.23    1.43    1.67   -0.17    0.00    0.00       1.98    2.69   -0.28
#  46   -1.61   -0.52    0.25    2.21   -0.14    0.00    0.00       0.20    4.58   -0.28
#  47   -6.31   -0.02    0.00    3.90    0.16    0.00    0.00      -2.26   11.07    0.46
#  48   -4.47   -0.01    0.00    1.48    0.06    0.00    0.00      -2.93   13.82    0.59
#  49   -0.39   -0.20    0.04    0.38   -0.04    0.00    0.00      -0.21    2.53   -0.28

@<TRIPOS>MOLECULE
          T528698        98
   49    52     0     0     0



@<TRIPOS>ATOM
      1 Cl1         5.4874    -4.9675    84.4205 Cl         1          -0.0292
      2 C1          6.0023    -5.1959    86.0626 C.ar       1           0.0166
      3 C2          7.3119    -4.9008    86.4203 C.ar       1          -0.1217
      4 C3          7.7352    -5.0740    87.7086 C.ar       1           0.0331
      5 Cl2         9.3737    -4.7017    88.1447 Cl         1          -0.0363
      6 C4          6.8440    -5.5513    88.6734 C.ar       1          -0.1202
      7 C5          6.9551    -5.8469    90.1039 C.2        1          -0.1083
      8 C6          5.7528    -6.2855    90.5085 C.2        1          -0.0135
      9 C7          5.4133    -6.7048    91.9156 C.3        1           0.0720
     10 N1          4.9287    -5.5412    92.6699 N.4        1          -0.5116
     11 H1          5.6472    -4.8331    92.6940 H          1           0.4341
     12 H2          4.1048    -5.1693    92.2217 H          1           0.4280
     13 C8          4.5980    -5.9500    94.0414 C.3        1          -0.0065
     14 C9          5.8476    -6.5139    94.7209 C.3        1          -0.1620
     15 C10         5.5031    -6.9397    96.1496 C.3        1           0.1089
     16 N2          6.6996    -7.4797    96.8000 N.pl3      1          -0.7357
     17 C11         6.9821    -8.8210    96.7135 C.2        1           0.4731
     18 C12         6.4089    -9.5587    95.7046 C.2        1          -0.3963
     19 C13         6.6838   -10.9314    95.5965 C.2        1           0.4272
     20 O1          6.1850   -11.6041    94.7075 O.2        1          -0.5029
     21 C14         7.5930   -11.5371    96.5877 C.ar       1          -0.1889
     22 C15         7.9114   -12.8942    96.5414 C.ar       1          -0.0309
     23 C16         8.7643   -13.4258    97.4831 C.ar       1          -0.1499
     24 C17         9.3059   -12.6191    98.4740 C.ar       1          -0.0586
     25 C18         8.9999   -11.2770    98.5322 C.ar       1          -0.1718
     26 C19         8.1406   -10.7203    97.5899 C.ar       1           0.1897
     27 N3          7.8249    -9.3773    97.6254 N.pl3      1          -0.6280
     28 N4          4.8807    -6.2949    89.4534 N.pl3      1          -0.5832
     29 C20         5.5173    -5.8514    88.3161 C.ar       1           0.1450
     30 C21         5.1060    -5.6628    87.0002 C.ar       1          -0.1225
     31 H3          8.0009    -4.5323    85.6747 H          1           0.1552
     32 H4          7.8371    -5.7336    90.7167 H          1           0.1650
     33 H5          4.6373    -7.4698    91.8894 H          1           0.1440
     34 H6          6.3034    -7.1067    92.3997 H          1           0.1595
     35 H7          4.2385    -5.0865    94.6013 H          1           0.1383
     36 H8          3.8220    -6.7150    94.0156 H          1           0.1412
     37 H9          6.2071    -7.3773    94.1612 H          1           0.1018
     38 H10         6.6236    -5.7489    94.7470 H          1           0.0999
     39 H11         5.1434    -6.0763    96.7093 H          1           0.0766
     40 H12         4.7271    -7.7048    96.1235 H          1           0.0775
     41 H13         7.2922    -6.8899    97.2919 H          1           0.4247
     42 H14         5.7472    -9.0827    94.9960 H          1           0.1449
     43 H15         7.4913   -13.5247    95.7718 H          1           0.1422
     44 H16         9.0128   -14.4763    97.4505 H          1           0.1349
     45 H17         9.9734   -13.0476    99.2068 H          1           0.1352
     46 H18         9.4267   -10.6580    99.3074 H          1           0.1300
     47 H19         8.2099    -8.8180    98.3181 H          1           0.4093
     48 H20         3.9526    -6.5731    89.5000 H          1           0.4237
     49 H21         4.0888    -5.8852    86.7135 H          1           0.1463
@<TRIPOS>BOND
     1    1    2 1
     2    2   30 ar
     3    2    3 ar
     4    3    4 ar
     5    3   31 1
     6    4    5 1
     7    4    6 ar
     8    6   29 ar
     9    6    7 1
    10    7    8 2
    11    7   32 1
    12    8    9 1
    13    8   28 1
    14    9   10 1
    15    9   33 1
    16    9   34 1
    17   10   11 1
    18   10   12 1
    19   10   13 1
    20   13   14 1
    21   13   35 1
    22   13   36 1
    23   14   15 1
    24   14   37 1
    25   14   38 1
    26   15   16 1
    27   15   39 1
    28   15   40 1
    29   16   17 1
    30   16   41 1
    31   17   27 1
    32   17   18 2
    33   18   19 1
    34   18   42 1
    35   19   20 2
    36   19   21 1
    37   21   26 ar
    38   21   22 ar
    39   22   23 ar
    40   22   43 1
    41   23   24 ar
    42   23   44 1
    43   24   25 ar
    44   24   45 1
    45   25   26 ar
    46   25   46 1
    47   26   27 1
    48   27   47 1
    49   28   29 1
    50   28   48 1
    51   29   30 ar
    52   30   49 1
##########                 Name:              T530434
##########          Protonation:                   25
##########               SMILES:   C[C@H]1CC[C@@]2(N(C(=[NH2+])NC(=[NH2+])N2)OCc3c4c(c5c(c3)cccc5)cccc4)CC1
##########            Long Name:   11-(9-phenanthrylmethoxy)-7,9,11-triazaspiro[5.5]undecan-10-ylidene]ammonium
##########          FlexRecCode: 1
##########               Number:                  193
##########   Ligand Source File: /raidb/db2/rgc/tcams/tcams-0000675.db2.gz
##########           GlobalRank: 203
##########                 Rank:                    1
##########               Setnum:                   37
##########             Matchnum:                 5324
##########                Cloud:                    1
##########        Electrostatic:           -53.375359
##########        Van der Waals:           -21.380545
##########  Ligand Polar Desolv:            13.098017
########## Ligand Apolar Desolv:            -4.579479
##########      Internal Energy:             0.000000
##########      Receptor Energy: 0.0
########## Receptor Desolvation:             0.000000
########## Receptor Hydrophobic:             0.000000
##########         Total Energy: -66.24
##########        Ligand Charge:             2.000000
##########            Arbitrary:    +999.9990
##########     heavy atom count:   30
##########           pose count:    1
##########        Ligand Energy:             0.000000
# num electro vdwattr vdwrepu polsolv apolsol rdesolv rhydroe totalscore fullpol fullapo
#   1    0.00   -0.54    0.31   -0.51   -0.02    0.00    0.00      -0.76   -3.85   -0.18
#   2    0.04   -0.10    0.00   -0.19   -0.01    0.00    0.00      -0.25   -2.63   -0.18
#   3    0.31   -0.09    0.00   -0.23   -0.01    0.00    0.00      -0.01   -3.87   -0.21
#   4    0.80   -0.17    0.01   -0.58   -0.02    0.00    0.00       0.04   -5.41   -0.21
#   5   -3.99   -0.17    0.00    2.17   -0.03    0.00    0.00      -2.01   19.45   -0.27
#   6    0.79   -0.15    0.00   -0.44   -0.02    0.00    0.00       0.18   -5.02   -0.19
#   7    0.22   -0.08    0.00   -0.25   -0.01    0.00    0.00      -0.12   -4.17   -0.21
#   8    8.20   -0.23    0.00   -3.41    0.15    0.00    0.00       4.72  -34.29    1.52
#   9  -14.69   -0.52    0.03    7.27   -0.82    0.00    0.00      -8.73   40.09   -4.54
#  10   10.36   -0.55    0.03   -6.45    0.17    0.00    0.00       3.57  -33.11    0.89
#  11   -4.23   -0.01    0.00    1.52    0.04    0.00    0.00      -2.68   24.71    0.60
#  12   -9.16   -0.02    0.00    4.76    0.11    0.00    0.00      -4.30   25.61    0.60
#  13   22.08   -1.89    0.91   -9.54    0.33    0.00    0.00      11.89  -33.47    1.15
#  14  -22.97   -1.44    0.68    9.83   -1.12    0.00    0.00     -15.02   38.20   -4.34
#  15   26.68   -3.29    6.90   -8.69    0.25    0.00    0.00      21.85  -30.94    0.89
#  16  -30.27   -0.33    0.38    7.87    0.19    0.00    0.00     -22.15   25.23    0.60
#  17  -14.23   -0.02    0.00    3.63    0.10    0.00    0.00     -10.53   22.65    0.60
#  18    8.13   -0.60    0.05   -4.57    0.14    0.00    0.00       3.14  -22.60    0.68
#  19    0.98   -1.02    0.33   -0.90    0.06    0.00    0.00      -0.56   -3.78    0.24
#  20   -0.46   -0.62    0.09    0.63   -0.03    0.00    0.00      -0.40    2.54   -0.11
#  21    0.67   -1.18    0.17   -0.41   -0.12    0.00    0.00      -0.87   -1.36   -0.40
#  22    0.27   -1.33    0.19   -0.78   -0.15    0.00    0.00      -1.79   -2.32   -0.43
#  23    0.43   -1.35    0.12   -0.51   -0.18    0.00    0.00      -1.49   -1.15   -0.40
#  24    0.94   -2.04    0.49   -0.89   -0.24    0.00    0.00      -1.75   -1.71   -0.46
#  25    0.96   -3.12    1.43   -1.34   -0.29    0.00    0.00      -2.35   -2.20   -0.47
#  26    0.53   -3.22    1.28   -1.16   -0.29    0.00    0.00      -2.87   -1.87   -0.47
#  27    0.93   -2.42    1.24   -0.96   -0.24    0.00    0.00      -1.46   -1.74   -0.44
#  28    0.21   -1.58    0.33   -0.65   -0.19    0.00    0.00      -1.88   -1.41   -0.41
#  29    0.31   -1.48    0.21   -0.62   -0.17    0.00    0.00      -1.76   -1.46   -0.41
#  30    1.59   -1.95    0.30   -1.22   -0.24    0.00    0.00      -1.51   -2.22   -0.44
#  31    1.83   -2.47    0.65   -1.27   -0.26    0.00    0.00      -1.53   -2.26   -0.47
#  32    1.85   -2.22    1.01   -1.37   -0.23    0.00    0.00      -0.96   -2.84   -0.47
#  33    2.10   -1.33    0.18   -0.69   -0.16    0.00    0.00       0.10   -1.87   -0.44
#  34    0.48   -1.26    0.16   -0.43   -0.14    0.00    0.00      -1.18   -1.23   -0.40
#  35   -0.03   -0.13    0.03   -0.02   -0.03    0.00    0.00      -0.18   -0.23   -0.28
#  36    0.02   -0.37    0.46    0.04   -0.04    0.00    0.00       0.11    0.29   -0.28
#  37    0.00   -0.16    0.08    0.18   -0.03    0.00    0.00       0.07    1.69   -0.28
#  38   -0.05   -0.01    0.00    0.02   -0.01    0.00    0.00      -0.04    1.25   -0.28
#  39   -0.17   -0.03    0.00    0.10   -0.01    0.00    0.00      -0.10    3.73   -0.27
#  40   -0.28   -0.02    0.00    0.03   -0.01    0.00    0.00      -0.28    1.13   -0.28
#  41   -0.32   -0.08    0.00    0.47   -0.02    0.00    0.00       0.05    6.37   -0.26
#  42   -0.81   -0.06    0.00    0.27   -0.02    0.00    0.00      -0.61    4.62   -0.28
#  43   -0.24   -0.09    0.01    0.39   -0.02    0.00    0.00       0.05    4.41   -0.22
#  44   -1.14   -0.04    0.00    0.17   -0.01    0.00    0.00      -1.02    4.33   -0.28
#  45   -0.30   -0.02    0.00    0.00   -0.01    0.00    0.00      -0.32    0.03   -0.28
#  46   -0.06   -0.02    0.00    0.11    0.00    0.00    0.00       0.02    3.59   -0.15
#  47   -3.81    0.00    0.00    0.76    0.02    0.00    0.00      -3.04   23.26    0.58
#  48  -20.75   -0.08    0.01    9.70    0.20    0.00    0.00     -10.92   28.02    0.59
#  49   -0.95   -0.14    0.01    0.80   -0.03    0.00    0.00      -0.32    6.54   -0.28
#  50   -0.14   -0.30    0.12    0.87   -0.04    0.00    0.00       0.51    4.95   -0.21
#  51   -0.46   -0.28    0.05    1.47   -0.05    0.00    0.00       0.72    6.38   -0.23
#  52   -1.97   -0.69    0.54    1.77   -0.12    0.00    0.00      -0.47    4.26   -0.28
#  53   -1.53   -1.20    1.75    1.21   -0.17    0.00    0.00       0.06    1.98   -0.28
#  54   -0.18   -1.22    1.13    0.68   -0.18    0.00    0.00       0.23    1.07   -0.28
#  55   -1.60   -0.58    0.31    0.41   -0.11    0.00    0.00      -1.57    0.83   -0.22
#  56   -2.78   -0.52    0.14    0.36   -0.11    0.00    0.00      -2.90    0.74   -0.22
#  57   -2.54   -0.85    0.42    0.87   -0.17    0.00    0.00      -2.27    1.48   -0.28
#  58   -2.57   -0.97    2.88    1.46   -0.12    0.00    0.00       0.68    3.52   -0.28
#  59   -2.43   -0.19    0.01    1.40   -0.05    0.00    0.00      -1.25    7.45   -0.24

@<TRIPOS>MOLECULE
          T530434        25
   59    63     0     0     0



@<TRIPOS>ATOM
      1 C1          4.7609   -12.0666    90.6692 C.3        1          -0.1534
      2 C2          5.3849   -11.4499    89.4156 C.3        1          -0.0957
      3 C3          6.9005   -11.3494    89.5988 C.3        1          -0.1142
      4 C4          7.2079   -10.4787    90.8195 C.3        1          -0.1395
      5 C5          6.6025    -9.0902    90.6163 C.3        1           0.4089
      6 C6          5.0911    -9.1763    90.4063 C.3        1          -0.1336
      7 C7          4.7977   -10.0557    89.1884 C.3        1          -0.1315
      8 N1          7.2342    -8.4290    89.4652 N.pl3      1          -0.7116
      9 C8          7.0292    -7.0652    89.3132 C.cat      1           0.7699
     10 N2          6.7236    -6.5380    88.1620 N.pl3      1          -0.6684
     11 H1          6.6332    -7.1029    87.3786 H          1           0.4682
     12 H2          6.5865    -5.5806    88.0882 H          1           0.4599
     13 N3          7.1691    -6.2921    90.4653 N.pl3      1          -0.6789
     14 C9          6.6940    -6.8718    91.6413 C.cat      1           0.7596
     15 N4          6.0910    -6.1725    92.5600 N.pl3      1          -0.6512
     16 H3          5.9613    -5.2190    92.4367 H          1           0.4594
     17 H4          5.7718    -6.6049    93.3674 H          1           0.4708
     18 N5          6.9010    -8.2371    91.7756 N.pl3      1          -0.4866
     19 O1          7.3829    -8.7896    92.9871 O.3        1          -0.0725
     20 C10         6.3539    -9.1606    93.9065 C.3        1           0.0585
     21 C11         6.9769    -9.7336    95.1533 C.ar       1          -0.1010
     22 C12         7.2175   -11.0588    95.2213 C.ar       1          -0.0610
     23 C13         7.8002   -11.6445    96.3689 C.ar       1          -0.0677
     24 C14         8.0468   -13.0235    96.4298 C.ar       1          -0.0985
     25 C15         8.6104   -13.5616    97.5493 C.ar       1          -0.1094
     26 C16         8.9451   -12.7616    98.6355 C.ar       1          -0.0910
     27 C17         8.7172   -11.4154    98.6075 C.ar       1          -0.1093
     28 C18         8.1425   -10.8346    97.4753 C.ar       1          -0.0259
     29 C19         7.8807    -9.3946    97.4016 C.ar       1          -0.0278
     30 C20         8.1959    -8.5398    98.4595 C.ar       1          -0.0957
     31 C21         7.9360    -7.2034    98.3500 C.ar       1          -0.1029
     32 C22         7.3603    -6.6837    97.1966 C.ar       1          -0.1013
     33 C23         7.0409    -7.4937    96.1466 C.ar       1          -0.1241
     34 C24         7.3019    -8.8692    96.2242 C.ar       1          -0.0440
     35 H5          5.1787   -13.0600    90.8319 H          1           0.0665
     36 H6          4.9778   -11.4355    91.5310 H          1           0.0645
     37 H7          3.6816   -12.1434    90.5375 H          1           0.0576
     38 H8          5.1655   -12.0805    88.5539 H          1           0.0833
     39 H9          7.3155   -12.3461    89.7492 H          1           0.0711
     40 H10         7.3451   -10.9005    88.7105 H          1           0.0941
     41 H11         6.7777   -10.9362    91.7104 H          1           0.0716
     42 H12         8.2876   -10.3906    90.9408 H          1           0.1231
     43 H13         4.6253    -9.6121    91.2902 H          1           0.0957
     44 H14         4.6895    -8.1769    90.2386 H          1           0.1195
     45 H15         5.2493    -9.6111    88.3015 H          1           0.0937
     46 H16         3.7195   -10.1337    89.0474 H          1           0.0978
     47 H17         7.7756    -8.9286    88.8343 H          1           0.4643
     48 H18         7.5703    -5.4090    90.4498 H          1           0.4789
     49 H19         5.7642    -8.2815    94.1660 H          1           0.0847
     50 H20         5.7080    -9.9085    93.4464 H          1           0.0973
     51 H21         6.9592   -11.6864    94.3813 H          1           0.1279
     52 H22         7.7913   -13.6572    95.5935 H          1           0.1295
     53 H23         8.7989   -14.6242    97.5924 H          1           0.1328
     54 H24         9.3900   -13.2097    99.5117 H          1           0.1351
     55 H25         8.9804   -10.8028    99.4571 H          1           0.1345
     56 H26         8.6428    -8.9335    99.3604 H          1           0.1367
     57 H27         8.1803    -6.5432    99.1692 H          1           0.1350
     58 H28         7.1629    -5.6239    97.1309 H          1           0.1296
     59 H29         6.5934    -7.0763    95.2567 H          1           0.1167
@<TRIPOS>BOND
     1    1    2 1
     2    1   35 1
     3    1   36 1
     4    1   37 1
     5    2    7 1
     6    2    3 1
     7    2   38 1
     8    3    4 1
     9    3   39 1
    10    3   40 1
    11    4    5 1
    12    4   41 1
    13    4   42 1
    14    5   18 1
    15    5    6 1
    16    5    8 1
    17    6    7 1
    18    6   43 1
    19    6   44 1
    20    7   45 1
    21    7   46 1
    22    8    9 1
    23    8   47 1
    24    9   10 2
    25    9   13 1
    26   10   11 1
    27   10   12 1
    28   13   14 1
    29   13   48 1
    30   14   15 2
    31   14   18 1
    32   15   16 1
    33   15   17 1
    34   18   19 1
    35   19   20 1
    36   20   21 1
    37   20   49 1
    38   20   50 1
    39   21   34 ar
    40   21   22 ar
    41   22   23 ar
    42   22   51 1
    43   23   28 ar
    44   23   24 ar
    45   24   25 ar
    46   24   52 1
    47   25   26 ar
    48   25   53 1
    49   26   27 ar
    50   26   54 1
    51   27   28 ar
    52   27   55 1
    53   28   29 ar
    54   29   34 ar
    55   29   30 ar
    56   30   31 ar
    57   30   56 1
    58   31   32 ar
    59   31   57 1
    60   32   33 ar
    61   32   58 1
    62   33   34 ar
    63   33   59 1
##########                 Name:              T532175
##########          Protonation:                  100
##########               SMILES:   CC(C)CCCC(C)(C)[NH2+]C[C@H]([C@@H](Cc1ccccc1)NC(=O)c2cccc(c2)CCC3CC3)O
##########            Long Name:   thyl)benzoyl]amino]-2-hydroxy-4-phenyl-butyl]-(1,1,5-trimethylhexyl)ammonium
##########          FlexRecCode: 1
##########               Number:                  184
##########   Ligand Source File: /raidb/db2/rgc/tcams/tcams-0001096.db2.gz
##########           GlobalRank: 205
##########                 Rank:                    1
##########               Setnum:                  348
##########             Matchnum:                 1110
##########                Cloud:                    1
##########        Electrostatic:           -42.017673
##########        Van der Waals:           -26.285734
##########  Ligand Polar Desolv:             5.511444
########## Ligand Apolar Desolv:            -3.410398
##########      Internal Energy:             0.000000
##########      Receptor Energy: 0.0
########## Receptor Desolvation:             0.000000
########## Receptor Hydrophobic:             0.000000
##########         Total Energy: -66.2
##########        Ligand Charge:             1.000000
##########            Arbitrary:    +999.9990
##########     heavy atom count:   35
##########           pose count:    1
##########        Ligand Energy:             0.000000
# num electro vdwattr vdwrepu polsolv apolsol rdesolv rhydroe totalscore fullpol fullapo
#   1    1.27   -0.68    0.12   -0.47   -0.05    0.00    0.00       0.19   -1.59   -0.18
#   2    1.48   -1.18    0.33   -0.51   -0.08    0.00    0.00       0.04   -1.28   -0.19
#   3    2.33   -1.25    0.24   -0.76   -0.08    0.00    0.00       0.48   -1.78   -0.18
#   4    2.68   -0.98    0.37   -0.63   -0.07    0.00    0.00       1.38   -1.88   -0.20
#   5    3.10   -0.93    0.28   -0.77   -0.05    0.00    0.00       1.62   -2.67   -0.18
#   6    3.44   -0.66    0.10   -0.90   -0.05    0.00    0.00       1.94   -3.63   -0.19
#   7   -1.24   -0.46    0.05    0.70   -0.01    0.00    0.00      -0.95    3.50   -0.06
#   8    2.96   -0.52    0.05   -1.34   -0.04    0.00    0.00       1.12   -5.66   -0.15
#   9    2.05   -0.15    0.00   -0.47   -0.01    0.00    0.00       1.42   -5.41   -0.15
#  10   16.99   -1.54    1.25   -4.32    0.14    0.00    0.00      12.52  -16.54    0.54
#  11  -11.89   -0.02    0.00    3.32    0.11    0.00    0.00      -8.48   17.22    0.56
#  12  -23.44   -0.17    0.07    5.47    0.17    0.00    0.00     -17.91   17.25    0.53
#  13    1.49   -0.59    0.13   -0.32   -0.06    0.00    0.00       0.65   -1.49   -0.30
#  14   -2.38   -0.70    0.19    0.88   -0.03    0.00    0.00      -2.05    3.49   -0.12
#  15   25.19   -2.89    4.36   -6.63    0.62    0.00    0.00      20.64  -16.61    1.55
#  16   -2.12   -0.43    0.02    0.64   -0.05    0.00    0.00      -1.94    2.95   -0.22
#  17    1.55   -0.62    0.03   -0.55   -0.07    0.00    0.00       0.34   -1.62   -0.20
#  18    1.22   -1.10    0.08   -0.21   -0.08    0.00    0.00      -0.09   -0.57   -0.23
#  19    0.74   -1.98    0.55   -0.38   -0.13    0.00    0.00      -1.19   -0.96   -0.32
#  20    0.97   -1.91    0.48   -0.27   -0.20    0.00    0.00      -0.93   -0.65   -0.47
#  21    1.66   -1.53    0.19   -0.25   -0.22    0.00    0.00      -0.14   -0.54   -0.47
#  22    2.14   -2.11    0.62   -0.30   -0.21    0.00    0.00       0.14   -0.68   -0.47
#  23    2.31   -1.54    0.38   -0.45   -0.19    0.00    0.00       0.50   -1.05   -0.45
#  24   13.37   -0.57    0.01   -3.31    0.37    0.00    0.00       9.88  -15.11    1.70
#  25   -6.21   -0.52    0.02    1.54   -0.09    0.00    0.00      -5.27    7.88   -0.48
#  26    1.86   -0.73    0.10   -1.10    0.07    0.00    0.00       0.20   -4.68    0.32
#  27    1.55   -0.59    0.03   -0.42   -0.09    0.00    0.00       0.47   -1.86   -0.41
#  28    1.91   -0.91    0.07   -0.35   -0.14    0.00    0.00       0.58   -1.10   -0.44
#  29    2.50   -1.39    0.39   -0.69   -0.17    0.00    0.00       0.63   -1.87   -0.47
#  30    1.42   -2.17    1.83   -0.42   -0.15    0.00    0.00       0.50   -1.25   -0.45
#  31    0.48   -1.25    0.47   -0.25   -0.10    0.00    0.00      -0.66   -0.91   -0.36
#  32    0.17   -0.74    0.20   -0.13   -0.06    0.00    0.00      -0.55   -0.48   -0.23
#  33    0.10   -0.40    0.03   -0.10   -0.06    0.00    0.00      -0.44   -0.39   -0.24
#  34    0.17   -0.50    0.07   -0.20   -0.09    0.00    0.00      -0.55   -0.81   -0.37
#  35    0.18   -0.21    0.01   -0.13   -0.06    0.00    0.00      -0.22   -0.92   -0.43
#  36    0.15   -0.70    0.25   -0.23   -0.10    0.00    0.00      -0.62   -0.98   -0.43
#  37    0.15   -0.60    0.05   -0.16   -0.08    0.00    0.00      -0.64   -0.82   -0.43
#  38   -0.62   -0.33    0.15    0.02   -0.05    0.00    0.00      -0.84    0.12   -0.28
#  39   -0.31   -0.07    0.00    0.04   -0.02    0.00    0.00      -0.36    0.55   -0.28
#  40   -0.19   -0.24    0.04    0.12   -0.08    0.00    0.00      -0.35    0.43   -0.28
#  41   -1.09   -0.94    0.87    0.34   -0.12    0.00    0.00      -0.95    0.77   -0.28
#  42   -1.31   -0.67    0.22    0.24   -0.13    0.00    0.00      -1.65    0.51   -0.28
#  43   -0.49   -0.49    0.15    0.50   -0.09    0.00    0.00      -0.42    1.26   -0.22
#  44   -0.82   -0.21    0.02    0.02   -0.07    0.00    0.00      -1.06    0.08   -0.28
#  45   -2.06   -0.63    0.67    0.32   -0.10    0.00    0.00      -1.79    0.94   -0.28
#  46   -1.19   -0.12    0.00    0.12   -0.03    0.00    0.00      -1.21    1.07   -0.28
#  47   -1.33   -0.13    0.01    0.22   -0.03    0.00    0.00      -1.26    1.52   -0.21
#  48   -2.76   -0.73    0.61    0.49   -0.06    0.00    0.00      -2.44    1.41   -0.17
#  49   -3.10   -0.44    0.15    0.86   -0.08    0.00    0.00      -2.61    3.01   -0.28
#  50   -1.46   -0.08    0.00    0.25   -0.02    0.00    0.00      -1.31    3.24   -0.28
#  51   -1.42   -0.09    0.00    0.14   -0.02    0.00    0.00      -1.39    1.44   -0.21
#  52   -2.28   -0.43    0.14    0.92   -0.07    0.00    0.00      -1.72    3.02   -0.23
#  53   -0.44   -0.10    0.00    0.35   -0.03    0.00    0.00      -0.21    3.26   -0.28
#  54   -0.69   -0.04    0.00    0.10   -0.01    0.00    0.00      -0.64    2.67   -0.28
#  55   -0.62   -0.03    0.00    0.08   -0.01    0.00    0.00      -0.57    2.56   -0.22
#  56   -1.23   -0.04    0.00    0.05   -0.01    0.00    0.00      -1.23    1.39   -0.21
#  57   -3.83   -0.19    0.03    0.96   -0.03    0.00    0.00      -3.07    5.50   -0.19
#  58   -2.21   -0.07    0.00    0.33   -0.01    0.00    0.00      -1.96    5.05   -0.22
#  59   -3.94   -0.19    0.02    1.00   -0.05    0.00    0.00      -3.15    5.62   -0.28
#  60  -28.57   -0.53    0.99    5.00    0.41    0.00    0.00     -22.70   13.07    1.06
#  61   -0.62   -0.20    0.06    0.25   -0.04    0.00    0.00      -0.55    1.74   -0.26
#  62   -2.15   -0.24    0.02    0.47   -0.06    0.00    0.00      -1.97    2.09   -0.28
#  63   -1.25   -0.22    0.01    0.45   -0.06    0.00    0.00      -1.07    1.90   -0.27
#  64    0.26   -0.94    0.99    0.57   -0.11    0.00    0.00       0.77    1.48   -0.28
#  65   -0.58   -0.74    0.56    0.11   -0.10    0.00    0.00      -0.74    0.33   -0.28
#  66   -1.84   -0.33    0.05    0.03   -0.08    0.00    0.00      -2.18    0.10   -0.28
#  67   -2.66   -0.92    0.99    0.22   -0.13    0.00    0.00      -2.50    0.47   -0.28
#  68   -3.34   -0.36    0.08    0.66   -0.11    0.00    0.00      -3.07    1.67   -0.28
#  69   -8.90   -0.01    0.00    1.66    0.05    0.00    0.00      -7.19   11.77    0.33
#  70   -2.66   -0.18    0.01    1.11   -0.05    0.00    0.00      -1.77    5.32   -0.22
#  71   -3.07   -0.24    0.02    0.76   -0.07    0.00    0.00      -2.60    3.03   -0.28
#  72   -2.34   -0.55    0.34    0.47   -0.09    0.00    0.00      -2.18    1.40   -0.28
#  73   -0.16   -0.14    0.02    0.02   -0.04    0.00    0.00      -0.29    0.13   -0.28
#  74   -0.20   -0.57    0.56    0.19   -0.10    0.00    0.00      -0.12    0.55   -0.28
#  75   -0.06   -0.21    0.03    0.13   -0.06    0.00    0.00      -0.18    0.57   -0.28
#  76   -0.08   -0.06    0.00    0.01   -0.01    0.00    0.00      -0.14    0.27   -0.27
#  77   -0.12   -0.33    0.22    0.14   -0.07    0.00    0.00      -0.16    0.54   -0.28
#  78   -0.09   -0.03    0.00    0.01   -0.01    0.00    0.00      -0.12    0.44   -0.28
#  79   -0.08   -0.05    0.00    0.02   -0.02    0.00    0.00      -0.13    0.35   -0.28
#  80   -0.07   -0.77    1.52    0.12   -0.07    0.00    0.00       0.73    0.47   -0.28
#  81   -0.08   -0.14    0.02    0.09   -0.04    0.00    0.00      -0.16    0.61   -0.28
#  82   -0.26   -0.07    0.00    0.00   -0.02    0.00    0.00      -0.34    0.07   -0.27

@<TRIPOS>MOLECULE
          T532175       100
   82    84     0     0     0



@<TRIPOS>ATOM
      1 C1         11.3044    -7.4524    90.3349 C.3        1          -0.1526
      2 C2         11.0523    -5.9661    90.0738 C.3        1          -0.0972
      3 C3         12.2382    -5.3741    89.3097 C.3        1          -0.1523
      4 C4          9.7778    -5.8033    89.2431 C.3        1          -0.1167
      5 C5          8.5919    -6.3955    90.0073 C.3        1          -0.1219
      6 C6          7.3174    -6.2328    89.1766 C.3        1          -0.1367
      7 C7          6.1314    -6.8249    89.9408 C.3        1           0.0556
      8 C8          4.8278    -6.2460    89.3873 C.3        1          -0.1802
      9 C9          6.1253    -8.3458    89.7740 C.3        1          -0.1810
     10 N1          6.2503    -6.4890    91.3660 N.4        1          -0.4994
     11 H1          6.9046    -7.1183    91.8064 H          1           0.4275
     12 H2          6.5799    -5.5401    91.4615 H          1           0.4301
     13 C10         4.9366    -6.6185    92.0107 C.3        1          -0.0557
     14 C11         5.0604    -6.2687    93.4950 C.3        1           0.0795
     15 O1          5.0659    -4.8482    93.6508 O.3        1          -0.5429
     16 C12         3.8746    -6.8610    94.2591 C.3        1           0.1268
     17 C13         3.9983    -6.5111    95.7434 C.3        1          -0.0845
     18 C14         5.2825    -7.0811    96.2885 C.ar       1          -0.0783
     19 C15         5.3016    -8.3573    96.8196 C.ar       1          -0.1079
     20 C16         6.4795    -8.8801    97.3196 C.ar       1          -0.1109
     21 C17         7.6384    -8.1272    97.2881 C.ar       1          -0.1129
     22 C18         7.6194    -6.8514    96.7561 C.ar       1          -0.1112
     23 C19         6.4423    -6.3301    96.2523 C.ar       1          -0.1065
     24 N2          2.6263    -6.3069    93.7292 N.am       1          -0.7400
     25 C20         1.6956    -7.1265    93.2013 C.2        1           0.5641
     26 O2          1.8922    -8.3255    93.1649 O.2        1          -0.4942
     27 C21         0.4359    -6.5673    92.6664 C.ar       1          -0.1379
     28 C22        -0.0659    -5.3650    93.1678 C.ar       1          -0.0994
     29 C23        -1.2416    -4.8485    92.6639 C.ar       1          -0.1216
     30 C24        -1.9234    -5.5195    91.6641 C.ar       1          -0.0859
     31 C25        -1.4315    -6.7113    91.1630 C.ar       1          -0.0796
     32 C26        -2.1804    -7.4351    90.0738 C.3        1          -0.0833
     33 C27        -1.6920    -6.9475    88.7082 C.3        1          -0.0809
     34 C28        -2.4523    -7.6822    87.6025 C.3        1          -0.1579
     35 C29        -1.8463    -8.9836    87.0730 C.3        1          -0.1799
     36 C30        -1.8156    -7.7193    86.2118 C.3        1          -0.1803
     37 C31        -0.2536    -7.2360    91.6540 C.ar       1          -0.0524
     38 H3         10.4595    -7.8742    90.8793 H          1           0.0591
     39 H4         11.4211    -7.9735    89.3847 H          1           0.0556
     40 H5         12.2124    -7.5685    90.9267 H          1           0.0560
     41 H6         10.9357    -5.4450    91.0241 H          1           0.0704
     42 H7         12.0585    -4.3151    89.1238 H          1           0.0559
     43 H8         13.1462    -5.4899    89.9016 H          1           0.0525
     44 H9         12.3549    -5.8951    88.3595 H          1           0.0586
     45 H10         9.5979    -4.7446    89.0571 H          1           0.0665
     46 H11         9.8944    -6.3245    88.2929 H          1           0.0659
     47 H12         8.7716    -7.4544    90.1934 H          1           0.0754
     48 H13         8.4752    -5.8743    90.9575 H          1           0.0789
     49 H14         7.1376    -5.1739    88.9906 H          1           0.0884
     50 H15         7.4340    -6.7540    88.2264 H          1           0.0882
     51 H16         3.9829    -6.6677    89.9316 H          1           0.1094
     52 H17         4.8323    -5.1624    89.5061 H          1           0.0798
     53 H18         4.7397    -6.4950    88.3298 H          1           0.0831
     54 H19         5.2806    -8.7676    90.3184 H          1           0.0837
     55 H20         6.0372    -8.5950    88.7165 H          1           0.0810
     56 H21         7.0541    -8.7583    90.1682 H          1           0.1089
     57 H22         4.2298    -5.9388    91.5349 H          1           0.1365
     58 H23         4.5807    -7.6435    91.9073 H          1           0.1480
     59 H24         5.9892    -6.6809    93.8892 H          1           0.1401
     60 H25         5.7924    -4.4050    93.1916 H          1           0.3846
     61 H26         3.8705    -7.9444    94.1404 H          1           0.1118
     62 H27         4.0025    -5.4276    95.8622 H          1           0.0855
     63 H28         3.1535    -6.9330    96.2879 H          1           0.0838
     64 H29         4.3962    -8.9456    96.8443 H          1           0.1080
     65 H30         6.4944    -9.8769    97.7352 H          1           0.1162
     66 H31         8.5584    -8.5355    97.6794 H          1           0.1193
     67 H32         8.5247    -6.2630    96.7318 H          1           0.1194
     68 H33         6.4283    -5.3348    95.8333 H          1           0.1141
     69 H34         2.4695    -5.3500    93.7582 H          1           0.3907
     70 H35         0.4648    -4.8406    93.9485 H          1           0.1160
     71 H36        -1.6309    -3.9184    93.0511 H          1           0.1300
     72 H37        -2.8440    -5.1117    91.2736 H          1           0.1305
     73 H38        -2.0033    -8.5069    90.1615 H          1           0.0787
     74 H39        -3.2473    -7.2339    90.1710 H          1           0.0788
     75 H40        -1.8692    -5.8755    88.6206 H          1           0.0671
     76 H41        -0.6252    -7.1485    88.6109 H          1           0.0641
     77 H42        -3.5391    -7.6184    87.6568 H          1           0.1060
     78 H43        -0.9059    -9.3161    87.5125 H          1           0.0931
     79 H44        -2.5344    -9.7761    86.7791 H          1           0.0947
     80 H45        -2.4833    -7.6803    85.3512 H          1           0.0956
     81 H46        -0.8548    -7.2202    86.0846 H          1           0.0929
     82 H47         0.1316    -8.1645    91.2590 H          1           0.1357
@<TRIPOS>BOND
     1    1    2 1
     2    1   38 1
     3    1   39 1
     4    1   40 1
     5    2    3 1
     6    2    4 1
     7    2   41 1
     8    3   42 1
     9    3   43 1
    10    3   44 1
    11    4    5 1
    12    4   45 1
    13    4   46 1
    14    5    6 1
    15    5   47 1
    16    5   48 1
    17    6    7 1
    18    6   49 1
    19    6   50 1
    20    7    8 1
    21    7    9 1
    22    7   10 1
    23    8   51 1
    24    8   52 1
    25    8   53 1
    26    9   54 1
    27    9   55 1
    28    9   56 1
    29   10   11 1
    30   10   12 1
    31   10   13 1
    32   13   14 1
    33   13   57 1
    34   13   58 1
    35   14   15 1
    36   14   16 1
    37   14   59 1
    38   15   60 1
    39   16   17 1
    40   16   24 1
    41   16   61 1
    42   17   18 1
    43   17   62 1
    44   17   63 1
    45   18   23 ar
    46   18   19 ar
    47   19   20 ar
    48   19   64 1
    49   20   21 ar
    50   20   65 1
    51   21   22 ar
    52   21   66 1
    53   22   23 ar
    54   22   67 1
    55   23   68 1
    56   24   25 am
    57   24   69 1
    58   25   26 2
    59   25   27 1
    60   27   37 ar
    61   27   28 ar
    62   28   29 ar
    63   28   70 1
    64   29   30 ar
    65   29   71 1
    66   30   31 ar
    67   30   72 1
    68   31   32 1
    69   31   37 ar
    70   32   33 1
    71   32   73 1
    72   32   74 1
    73   33   34 1
    74   33   75 1
    75   33   76 1
    76   34   36 1
    77   34   35 1
    78   34   77 1
    79   35   36 1
    80   35   78 1
    81   35   79 1
    82   36   80 1
    83   36   81 1
    84   37   82 1
##########                 Name:              T538794
##########          Protonation:                   15
##########               SMILES:   CC1(NC(=[NH2+])NC(=[NH2+])N1OCCc2cccc3c2cccc3)C
##########            Long Name:   ene-6,6-dimethyl-1-[2-(1-naphthyl)ethoxy]-1,3,5-triazinan-2-ylidene]ammonium
##########          FlexRecCode: 1
##########               Number:                   87
##########   Ligand Source File: /raidb/db2/rgc/tcams/tcams-0001822.db2.gz
##########           GlobalRank: 205
##########                 Rank:                    1
##########               Setnum:                   35
##########             Matchnum:                   58
##########                Cloud:                    1
##########        Electrostatic:           -57.255772
##########        Van der Waals:           -21.818350
##########  Ligand Polar Desolv:            16.584183
########## Ligand Apolar Desolv:            -3.713036
##########      Internal Energy:             0.000000
##########      Receptor Energy: 0.0
########## Receptor Desolvation:             0.000000
########## Receptor Hydrophobic:             0.000000
##########         Total Energy: -66.2
##########        Ligand Charge:             2.000000
##########            Arbitrary:    +999.9990
##########     heavy atom count:   23
##########           pose count:    1
##########        Ligand Energy:             0.000000
# num electro vdwattr vdwrepu polsolv apolsol rdesolv rhydroe totalscore fullpol fullapo
#   1    1.35   -0.28    0.03   -1.11   -0.02    0.00    0.00      -0.04   -8.03   -0.18
#   2   -4.66   -0.26    0.02    2.66   -0.06    0.00    0.00      -2.30   17.86   -0.38
#   3    1.47   -0.11    0.00   -0.47   -0.01    0.00    0.00       0.88   -6.82   -0.16
#   4   10.43   -0.83    0.16   -6.61    0.31    0.00    0.00       3.47  -32.19    1.52
#   5  -18.85   -1.42    0.39   10.61   -1.28    0.00    0.00     -10.55   37.45   -4.53
#   6   16.39   -1.46    0.50   -9.49    0.27    0.00    0.00       6.22  -31.44    0.89
#   7   -8.47   -0.01    0.00    2.80    0.07    0.00    0.00      -5.60   23.64    0.60
#   8  -15.02   -0.05    0.00    7.81    0.19    0.00    0.00      -7.07   24.49    0.60
#   9   26.33   -3.98    5.90  -10.43    0.38    0.00    0.00      18.20  -31.21    1.15
#  10  -23.00   -1.34    0.58    8.98   -1.10    0.00    0.00     -15.87   35.80   -4.37
#  11   22.18   -1.50    0.81   -7.52    0.22    0.00    0.00      14.18  -30.74    0.89
#  12  -22.12   -0.07    0.01    6.46    0.16    0.00    0.00     -15.56   24.09    0.60
#  13  -10.00   -0.01    0.00    2.06    0.04    0.00    0.00      -7.90   21.01    0.45
#  14    7.89   -0.57    0.04   -4.40    0.18    0.00    0.00       3.14  -21.26    0.87
#  15    0.66   -0.57    0.04   -0.77    0.10    0.00    0.00      -0.54   -3.47    0.43
#  16   -0.05   -0.74    0.15    0.19   -0.03    0.00    0.00      -0.48    0.74   -0.12
#  17    0.31   -1.00    0.31   -0.75   -0.07    0.00    0.00      -1.20   -2.35   -0.21
#  18    0.89   -1.35    0.15   -0.34   -0.13    0.00    0.00      -0.78   -0.93   -0.36
#  19    0.28   -1.51    0.25   -0.64   -0.16    0.00    0.00      -1.78   -1.59   -0.40
#  20    0.69   -1.63    0.24   -0.81   -0.19    0.00    0.00      -1.70   -1.86   -0.43
#  21    0.85   -1.99    0.38   -1.57   -0.25    0.00    0.00      -2.58   -2.95   -0.47
#  22    0.84   -2.54    0.66   -1.38   -0.28    0.00    0.00      -2.70   -2.28   -0.47
#  23    0.66   -2.23    0.51   -1.46   -0.27    0.00    0.00      -2.79   -2.50   -0.46
#  24    0.54   -1.89    0.68   -0.75   -0.20    0.00    0.00      -1.63   -1.48   -0.40
#  25    1.31   -2.29    0.71   -1.42   -0.25    0.00    0.00      -1.94   -2.59   -0.46
#  26    2.11   -1.99    0.28   -1.17   -0.26    0.00    0.00      -1.02   -2.11   -0.47
#  27    1.16   -1.44    0.14   -1.27   -0.21    0.00    0.00      -1.61   -2.79   -0.45
#  28   -0.59   -0.05    0.00    0.12   -0.01    0.00    0.00      -0.53    2.92   -0.27
#  29   -0.98   -0.22    0.11    0.58   -0.04    0.00    0.00      -0.55    4.19   -0.28
#  30   -0.34   -0.07    0.00    0.30   -0.02    0.00    0.00      -0.13    4.84   -0.26
#  31   -1.31   -0.04    0.00    0.10   -0.01    0.00    0.00      -1.25    2.61   -0.27
#  32   -0.62   -0.02    0.00    0.07   -0.01    0.00    0.00      -0.58    2.54   -0.28
#  33   -0.58   -0.03    0.00    0.12   -0.01    0.00    0.00      -0.50    3.94   -0.28
#  34   -5.00   -0.01    0.00    2.76    0.07    0.00    0.00      -2.18   21.53    0.58
#  35  -28.99   -0.34    0.31   11.90    0.27    0.00    0.00     -16.86   26.21    0.59
#  36   -0.85   -0.27    0.12    0.63   -0.04    0.00    0.00      -0.42    3.67   -0.26
#  37   -1.18   -0.41    0.21    0.93   -0.05    0.00    0.00      -0.50    4.48   -0.22
#  38   -0.56   -0.26    0.07    0.68   -0.05    0.00    0.00      -0.12    3.34   -0.23
#  39    0.30   -0.87    1.34    0.88   -0.08    0.00    0.00       1.57    2.94   -0.28
#  40   -0.20   -0.40    0.09    2.09   -0.06    0.00    0.00       1.52    7.11   -0.22
#  41   -1.77   -0.69    0.46    2.08   -0.14    0.00    0.00      -0.05    4.27   -0.28
#  42   -0.43   -1.27    1.61    1.05   -0.16    0.00    0.00       0.80    1.79   -0.28
#  43   -0.83   -0.70    0.64    0.54   -0.16    0.00    0.00      -0.51    0.94   -0.28
#  44   -2.74   -0.66    0.28    0.49   -0.14    0.00    0.00      -2.77    0.96   -0.28
#  45   -2.72   -0.51    0.07    1.04   -0.15    0.00    0.00      -2.28    1.90   -0.28
#  46   -2.03   -0.24    0.02    1.02   -0.07    0.00    0.00      -1.30    4.15   -0.28

@<TRIPOS>MOLECULE
          T538794        15
   46    48     0     0     0



@<TRIPOS>ATOM
      1 C1          7.8665   -10.3531    91.4340 C.3        1          -0.1923
      2 C2          7.4584    -8.9650    90.9366 C.3        1           0.4028
      3 C3          6.6447    -9.0872    89.6468 C.3        1          -0.1738
      4 N1          8.6555    -8.1383    90.7046 N.pl3      1          -0.7063
      5 C4          8.4690    -6.7723    90.5491 C.cat      1           0.7710
      6 N2          9.0657    -6.0986    89.6076 N.pl3      1          -0.6669
      7 H1          9.6609    -6.5516    88.9897 H          1           0.4686
      8 H2          8.9153    -5.1441    89.5241 H          1           0.4604
      9 N3          7.6058    -6.1622    91.4581 N.pl3      1          -0.6709
     10 C5          6.4802    -6.9034    91.8150 C.cat      1           0.7639
     11 N4          5.3168    -6.3456    91.9944 N.pl3      1          -0.6730
     12 H3          5.2155    -5.3877    91.8797 H          1           0.4597
     13 H4          4.5519    -6.8881    92.2426 H          1           0.4605
     14 N5          6.6701    -8.2691    91.9684 N.pl3      1          -0.4864
     15 O1          6.1266    -8.9674    93.0738 O.3        1          -0.0704
     16 C6          6.9946    -9.0264    94.2076 C.3        1           0.0052
     17 C7          6.1745    -9.3338    95.4622 C.3        1          -0.0659
     18 C8          7.0898    -9.3961    96.6578 C.ar       1          -0.1062
     19 C9          7.6851   -10.6138    97.0290 C.ar       1          -0.0398
     20 C10         7.4468   -11.7937    96.3038 C.ar       1          -0.1384
     21 C11         8.0410   -12.9547    96.6924 C.ar       1          -0.0973
     22 C12         8.8846   -12.9928    97.8013 C.ar       1          -0.1196
     23 C13         9.1382   -11.8704    98.5277 C.ar       1          -0.0882
     24 C14         8.5429   -10.6526    98.1565 C.ar       1          -0.0547
     25 C15         8.7821    -9.4724    98.8811 C.ar       1          -0.0813
     26 C16         8.1886    -8.3112    98.4918 C.ar       1          -0.1226
     27 C17         7.3485    -8.2722    97.3803 C.ar       1          -0.0852
     28 H5          8.4486   -10.8585    90.6634 H          1           0.1129
     29 H6          8.4683   -10.2531    92.3371 H          1           0.1244
     30 H7          6.9729   -10.9369    91.6556 H          1           0.0691
     31 H8          6.3594    -8.0935    89.3016 H          1           0.1110
     32 H9          7.2469    -9.5785    88.8825 H          1           0.1013
     33 H10         5.7480    -9.6769    89.8374 H          1           0.1151
     34 H11         9.5402    -8.5338    90.6624 H          1           0.4663
     35 H12         7.7773    -5.2784    91.8189 H          1           0.4807
     36 H13         7.7362    -9.8110    94.0571 H          1           0.0954
     37 H14         7.4991    -8.0679    94.3292 H          1           0.0689
     38 H15         5.4330    -8.5493    95.6128 H          1           0.0957
     39 H16         5.6699   -10.2923    95.3406 H          1           0.1011
     40 H17         6.7951   -11.7792    95.4426 H          1           0.1170
     41 H18         7.8559   -13.8600    96.1335 H          1           0.1253
     42 H19         9.3436   -13.9273    98.0885 H          1           0.1309
     43 H20         9.7934   -11.9152    99.3851 H          1           0.1355
     44 H21         9.4333    -9.4870    99.7426 H          1           0.1361
     45 H22         8.3739    -7.4057    99.0506 H          1           0.1330
     46 H23         6.8933    -7.3367    97.0903 H          1           0.1273
@<TRIPOS>BOND
     1    1    2 1
     2    1   28 1
     3    1   29 1
     4    1   30 1
     5    2   14 1
     6    2    3 1
     7    2    4 1
     8    3   31 1
     9    3   32 1
    10    3   33 1
    11    4    5 1
    12    4   34 1
    13    5    6 2
    14    5    9 1
    15    6    7 1
    16    6    8 1
    17    9   10 1
    18    9   35 1
    19   10   11 2
    20   10   14 1
    21   11   12 1
    22   11   13 1
    23   14   15 1
    24   15   16 1
    25   16   17 1
    26   16   36 1
    27   16   37 1
    28   17   18 1
    29   17   38 1
    30   17   39 1
    31   18   27 ar
    32   18   19 ar
    33   19   24 ar
    34   19   20 ar
    35   20   21 ar
    36   20   40 1
    37   21   22 ar
    38   21   41 1
    39   22   23 ar
    40   22   42 1
    41   23   24 ar
    42   23   43 1
    43   24   25 ar
    44   25   26 ar
    45   25   44 1
    46   26   27 ar
    47   26   45 1
    48   27   46 1
##########                 Name:              T537718
##########          Protonation:                   14
##########               SMILES:   c1ccc(cc1)Oc2ccc(cc2)Nc3cc[nH+]/c(=N/c4cccc(c4)C(=O)NCC[NH+]5CCCC5)/[nH]3
##########            Long Name:   H-pyrimidin-3-ium-2-ylidene]amino]-N-(2-pyrrolidin-1-ium-1-ylethyl)benzamide
##########          FlexRecCode: 1
##########               Number:                   22
##########   Ligand Source File: /raidb/db2/rgc/tcams/tcams-0001752.db2.gz
##########           GlobalRank: 206
##########                 Rank:                    1
##########               Setnum:                  176
##########             Matchnum:                  861
##########                Cloud:                    1
##########        Electrostatic:           -49.883121
##########        Van der Waals:           -27.848080
##########  Ligand Polar Desolv:            16.833136
########## Ligand Apolar Desolv:            -5.276922
##########      Internal Energy:             0.000000
##########      Receptor Energy: 0.0
########## Receptor Desolvation:             0.000000
########## Receptor Hydrophobic:             0.000000
##########         Total Energy: -66.17
##########        Ligand Charge:             2.000000
##########            Arbitrary:    +999.9990
##########     heavy atom count:   37
##########           pose count:    1
##########        Ligand Energy:             0.000000
# num electro vdwattr vdwrepu polsolv apolsol rdesolv rhydroe totalscore fullpol fullapo
#   1   12.50   -0.72    0.03   -3.47    0.11    0.00    0.00       8.45  -11.71    0.38
#   2   -9.67   -0.56    0.02    2.80   -0.14    0.00    0.00      -7.56   13.01   -0.65
#   3   12.27   -0.68    0.02   -5.39    0.61    0.00    0.00       6.83  -20.35    2.31
#   4   -2.69   -1.02    0.34    1.10   -0.18    0.00    0.00      -2.45    2.62   -0.42
#   5    0.51   -1.32    0.40    0.14   -0.15    0.00    0.00      -0.42    0.32   -0.34
#   6   10.15   -1.25    0.16   -5.78    0.17    0.00    0.00       3.45  -13.64    0.41
#   7   -9.64   -0.01    0.00    3.50    0.11    0.00    0.00      -6.04   17.76    0.56
#   8    0.33   -2.51    1.87    0.15   -0.21    0.00    0.00      -0.37    0.29   -0.41
#   9    3.57   -1.62    0.54   -2.65   -0.16    0.00    0.00      -0.31   -4.76   -0.29
#  10    3.48   -1.25    0.12   -3.00   -0.19    0.00    0.00      -0.84   -4.80   -0.30
#  11    0.17   -1.46    0.32    0.35   -0.24    0.00    0.00      -0.86    0.69   -0.48
#  12    1.43   -0.43    0.01   -0.51   -0.07    0.00    0.00       0.43   -2.99   -0.41
#  13    1.86   -0.75    0.08   -0.67   -0.08    0.00    0.00       0.44   -2.85   -0.35
#  14   -0.83   -0.48    0.02    0.37   -0.11    0.00    0.00      -1.02    1.93   -0.57
#  15    0.35   -0.20    0.00   -0.22   -0.04    0.00    0.00      -0.11   -2.71   -0.47
#  16    0.22   -0.26    0.01   -0.26   -0.05    0.00    0.00      -0.33   -2.63   -0.47
#  17    0.36   -0.40    0.02   -0.30   -0.06    0.00    0.00      -0.39   -2.06   -0.45
#  18    4.70   -0.92    0.10   -3.59    0.52    0.00    0.00       0.81  -14.14    2.04
#  19  -11.30   -1.11    0.20    4.30   -1.20    0.00    0.00      -9.10   16.58   -4.64
#  20   14.08   -0.72    0.08   -3.75    0.16    0.00    0.00       9.86  -18.35    0.80
#  21  -13.16   -0.87    0.13    3.84   -0.38    0.00    0.00     -10.44   16.08   -1.59
#  22   12.35   -0.92    0.16   -4.62    0.24    0.00    0.00       7.20  -19.98    1.03
#  23   -2.63   -1.51    0.74    1.28   -0.17    0.00    0.00      -2.29    5.21   -0.70
#  24    1.70   -0.90    0.30   -0.74   -0.08    0.00    0.00       0.28   -3.74   -0.42
#  25    0.51   -0.94    0.18   -0.34   -0.11    0.00    0.00      -0.70   -1.43   -0.45
#  26   -0.91   -1.05    0.17    0.07   -0.05    0.00    0.00      -1.78    0.27   -0.20
#  27    1.67   -1.06    0.17   -1.46    0.15    0.00    0.00      -0.53   -4.54    0.47
#  28   -0.95   -1.33    0.14    0.63   -0.11    0.00    0.00      -1.62    1.72   -0.31
#  29    0.94   -1.50    0.23   -1.02   -0.18    0.00    0.00      -1.52   -2.60   -0.46
#  30    0.72   -1.79    0.56   -0.77   -0.23    0.00    0.00      -1.51   -1.56   -0.47
#  31    2.05   -2.19    0.77   -1.42   -0.25    0.00    0.00      -1.05   -2.67   -0.47
#  32    1.34   -2.01    0.31   -0.89   -0.26    0.00    0.00      -1.50   -1.60   -0.47
#  33    2.71   -1.48    0.15   -1.48   -0.20    0.00    0.00      -0.30   -3.15   -0.42
#  34    2.04   -1.56    0.59   -0.68   -0.13    0.00    0.00       0.25   -2.27   -0.42
#  35    3.62   -2.89    3.20   -1.03   -0.14    0.00    0.00       2.76   -3.32   -0.46
#  36    7.59   -1.20    0.28   -2.67   -0.13    0.00    0.00       3.88   -9.35   -0.47
#  37   -9.43   -1.63    0.41    4.70   -0.33    0.00    0.00      -6.29   13.80   -0.97
#  38   11.99   -2.18    1.33   -5.39    0.32    0.00    0.00       6.07  -17.01    1.01
#  39   -6.56   -0.07    0.01    4.76    0.17    0.00    0.00      -1.69   16.66    0.59
#  40   -4.90   -0.01    0.00    2.22    0.07    0.00    0.00      -2.62   14.04    0.43
#  41   -3.70   -1.00    2.95    0.86   -0.10    0.00    0.00      -0.98    2.50   -0.28
#  42   -2.32   -0.24    0.02    0.71   -0.07    0.00    0.00      -1.89    2.40   -0.24
#  43   -4.17   -0.84    0.88    2.93   -0.12    0.00    0.00      -1.33    6.62   -0.27
#  44   -3.45   -0.37    0.09    2.21   -0.08    0.00    0.00      -1.61    7.29   -0.28
#  45   -5.89   -1.47    2.64    2.35   -0.12    0.00    0.00      -2.49    4.98   -0.26
#  46   -4.25   -1.53    3.14    2.74   -0.14    0.00    0.00      -0.03    5.29   -0.27
#  47   -2.47   -0.80    1.26    0.91   -0.11    0.00    0.00      -1.20    2.39   -0.28
#  48   -2.89   -0.67    0.30    0.88   -0.15    0.00    0.00      -2.53    1.70   -0.28
#  49   -2.54   -0.40    0.06    0.78   -0.12    0.00    0.00      -2.22    1.81   -0.28
#  50   -2.53   -0.62    0.17    0.88   -0.13    0.00    0.00      -2.22    1.94   -0.28
#  51   -3.17   -1.26    2.08    2.68   -0.12    0.00    0.00       0.21    5.99   -0.26
#  52   -2.54   -0.49    0.14    2.10   -0.10    0.00    0.00      -0.88    5.85   -0.28
#  53   -3.90   -0.35    0.08    0.66   -0.07    0.00    0.00      -3.58    2.49   -0.27
#  54   -0.45   -0.02    0.00    0.08   -0.01    0.00    0.00      -0.40    2.42   -0.28
#  55   -0.08   -0.05    0.00    0.21   -0.02    0.00    0.00       0.06    3.78   -0.28
#  56   -0.23   -0.13    0.01    0.77   -0.03    0.00    0.00       0.39    5.78   -0.22
#  57   -8.51   -0.01    0.00    0.92    0.03    0.00    0.00      -7.57   11.90    0.41
#  58   -6.19   -0.01    0.00    2.14    0.08    0.00    0.00      -3.98   15.15    0.59
#  59   -0.94   -0.08    0.01    0.30   -0.02    0.00    0.00      -0.73    3.67   -0.22
#  60   -0.62   -0.19    0.02    0.29   -0.04    0.00    0.00      -0.53    1.87   -0.27
#  61   -0.51   -0.27    0.02    0.94   -0.07    0.00    0.00       0.11    3.53   -0.28
#  62   -1.06   -0.31    0.03    1.07   -0.11    0.00    0.00      -0.38    2.62   -0.28
#  63   -2.19   -0.58    0.26    0.84   -0.14    0.00    0.00      -1.81    1.72   -0.28
#  64   -2.81   -0.52    0.08    1.15   -0.16    0.00    0.00      -2.26    2.06   -0.28
#  65   -2.02   -0.27    0.03    0.63   -0.06    0.00    0.00      -1.69    2.37   -0.22
#  66   -3.88   -0.24    0.03    0.58   -0.07    0.00    0.00      -3.58    2.48   -0.28
#  67   -6.72   -1.23    2.83    1.81   -0.11    0.00    0.00      -3.42    4.83   -0.28
#  68   -4.78   -0.19    0.03    1.67   -0.05    0.00    0.00      -3.33    9.57   -0.28
#  69   -7.60   -0.32    0.04    4.62   -0.09    0.00    0.00      -3.35   14.13   -0.28

@<TRIPOS>MOLECULE
          T537718        14
   69    73     0     0     0



@<TRIPOS>ATOM
      1 O1          2.8638    -5.3393    93.8508 O.2        1          -0.5128
      2 C1          2.2007    -6.2466    93.3875 C.2        1           0.5685
      3 N1          1.1166    -6.6956    94.0505 N.am       1          -0.7265
      4 C2          0.7372    -6.0902    95.3295 C.3        1           0.0968
      5 C3          0.4545    -4.6006    95.1247 C.3        1          -0.0185
      6 N2         -0.6428    -4.4385    94.1616 N.4        1          -0.3911
      7 H1         -0.5498    -5.1071    93.4117 H          1           0.4299
      8 C4         -1.9516    -4.6111    94.8424 C.3        1          -0.0111
      9 C5         -2.9406    -3.8805    93.8997 C.3        1          -0.1452
     10 C6         -2.1209    -2.6626    93.4153 C.3        1          -0.1457
     11 C7         -0.6469    -3.0621    93.6201 C.3        1          -0.0073
     12 C8          2.5800    -6.8536    92.0934 C.ar       1          -0.1174
     13 C9          3.2859    -6.1070    91.1527 C.ar       1          -0.1056
     14 C10         3.6400    -6.6878    89.9344 C.ar       1           0.0750
     15 C11         3.2844    -8.0139    89.6669 C.ar       1          -0.0691
     16 C12         2.5851    -8.7461    90.6046 C.ar       1          -0.0961
     17 C13         2.2364    -8.1781    91.8145 C.ar       1          -0.0823
     18 N3          4.3320    -5.9634    89.0055 N.2        1          -0.4979
     19 C14         5.6570    -5.9695    89.0131 C.2        1           0.5531
     20 N4          6.3278    -6.8039    89.8754 N.pl3      1          -0.6212
     21 C15         7.6958    -6.8100    89.8823 C.2        1           0.5587
     22 N5          8.3858    -7.6351    90.7339 N.pl3      1          -0.6659
     23 C16         7.8305    -7.9880    91.9697 C.ar       1           0.1408
     24 C17         7.5974    -9.3237    92.2704 C.ar       1          -0.1556
     25 C18         7.0500    -9.6712    93.4893 C.ar       1          -0.0629
     26 C19         6.7327    -8.6864    94.4138 C.ar       1           0.0793
     27 O2          6.1936    -9.0295    95.6139 O.3        1          -0.2609
     28 C20         7.0414    -9.2768    96.6467 C.ar       1           0.1092
     29 C21         7.5217   -10.5612    96.8591 C.ar       1          -0.1438
     30 C22         8.3834   -10.8100    97.9098 C.ar       1          -0.0794
     31 C23         8.7672    -9.7805    98.7493 C.ar       1          -0.1414
     32 C24         8.2896    -8.4998    98.5401 C.ar       1          -0.0781
     33 C25         7.4327    -8.2444    97.4872 C.ar       1          -0.1937
     34 C26         6.9658    -7.3519    94.1143 C.ar       1          -0.0903
     35 C27         7.5177    -7.0032    92.8977 C.ar       1          -0.1242
     36 C28         8.3721    -5.9690    89.0138 C.2        1          -0.2933
     37 C29         7.6453    -5.1456    88.1628 C.2        1           0.3217
     38 N6          6.3262    -5.1684    88.1784 N.pl3      1          -0.5254
     39 H2          5.8330    -4.5902    87.5758 H          1           0.4691
     40 H3          0.5875    -7.4198    93.6808 H          1           0.4083
     41 H4         -0.1577    -6.5806    95.7124 H          1           0.0943
     42 H5          1.5515    -6.2107    96.0441 H          1           0.0928
     43 H6          0.1722    -4.1502    96.0763 H          1           0.1376
     44 H7          1.3494    -4.1101    94.7418 H          1           0.1375
     45 H8         -2.2066    -5.6677    94.9233 H          1           0.1371
     46 H9         -1.9388    -4.1408    95.8256 H          1           0.1355
     47 H10        -3.2160    -4.5187    93.0601 H          1           0.1003
     48 H11        -3.8264    -3.5566    94.4461 H          1           0.1194
     49 H12        -2.3167    -2.4702    92.3605 H          1           0.1081
     50 H13        -2.3617    -1.7829    94.0122 H          1           0.1061
     51 H14        -0.1733    -2.3828    94.3288 H          1           0.1321
     52 H15        -0.1181    -3.0364    92.6673 H          1           0.1352
     53 H16         3.5573    -5.0834    91.3651 H          1           0.1370
     54 H17         3.5571    -8.4653    88.7245 H          1           0.1460
     55 H18         2.3129    -9.7695    90.3932 H          1           0.1493
     56 H19         1.6927    -8.7587    92.5450 H          1           0.1345
     57 H20         5.8342    -7.3847    90.4755 H          1           0.4480
     58 H21         9.2590    -7.9736    90.4802 H          1           0.4486
     59 H22         7.8441   -10.0902    91.5506 H          1           0.1201
     60 H23         6.8682   -10.7098    93.7231 H          1           0.1470
     61 H24         7.2220   -11.3657    96.2040 H          1           0.1282
     62 H25         8.7573   -11.8094    98.0759 H          1           0.1356
     63 H26         9.4409    -9.9771    99.5703 H          1           0.1319
     64 H27         8.5907    -7.6976    99.1975 H          1           0.1304
     65 H28         7.0640    -7.2430    97.3210 H          1           0.1243
     66 H29         6.7189    -6.5859    94.8346 H          1           0.1462
     67 H30         7.7025    -5.9647    92.6662 H          1           0.1467
     68 H31         9.4519    -5.9534    88.9988 H          1           0.2085
     69 H32         8.1629    -4.4862    87.4820 H          1           0.2338
@<TRIPOS>BOND
     1    1    2 2
     2    2    3 am
     3    2   12 1
     4    3    4 1
     5    3   40 1
     6    4    5 1
     7    4   41 1
     8    4   42 1
     9    5    6 1
    10    5   43 1
    11    5   44 1
    12    6    7 1
    13    6   11 1
    14    6    8 1
    15    8    9 1
    16    8   45 1
    17    8   46 1
    18    9   10 1
    19    9   47 1
    20    9   48 1
    21   10   11 1
    22   10   49 1
    23   10   50 1
    24   11   51 1
    25   11   52 1
    26   12   17 ar
    27   12   13 ar
    28   13   14 ar
    29   13   53 1
    30   14   15 ar
    31   14   18 1
    32   15   16 ar
    33   15   54 1
    34   16   17 ar
    35   16   55 1
    36   17   56 1
    37   18   19 2
    38   19   38 1
    39   19   20 1
    40   20   21 1
    41   20   57 1
    42   21   22 1
    43   21   36 2
    44   22   23 1
    45   22   58 1
    46   23   35 ar
    47   23   24 ar
    48   24   25 ar
    49   24   59 1
    50   25   26 ar
    51   25   60 1
    52   26   27 1
    53   26   34 ar
    54   27   28 1
    55   28   33 ar
    56   28   29 ar
    57   29   30 ar
    58   29   61 1
    59   30   31 ar
    60   30   62 1
    61   31   32 ar
    62   31   63 1
    63   32   33 ar
    64   32   64 1
    65   33   65 1
    66   34   35 ar
    67   34   66 1
    68   35   67 1
    69   36   37 1
    70   36   68 1
    71   37   38 2
    72   37   69 1
    73   38   39 1
##########                 Name:              T530232
##########          Protonation:                   23
##########               SMILES:   [H]/N=C/1\[NH+]=C(N[C@@H](N1OCc2ccccc2)c3ccc(c(c3)OC)OC)N
##########            Long Name:   loxy-2-(3,4-dimethoxyphenyl)-4-imino-1,2-dihydro-1,3,5-triazin-5-ium-6-amine
##########          FlexRecCode: 1
##########               Number:                   42
##########   Ligand Source File: /raidb/db2/rgc/tcams/tcams-0000641.db2.gz
##########           GlobalRank: 207
##########                 Rank:                    1
##########               Setnum:                  159
##########             Matchnum:                 1302
##########                Cloud:                    1
##########        Electrostatic:           -50.560322
##########        Van der Waals:           -29.694942
##########  Ligand Polar Desolv:            17.250633
########## Ligand Apolar Desolv:            -3.122957
##########      Internal Energy:             0.000000
##########      Receptor Energy: 0.0
########## Receptor Desolvation:             0.000000
########## Receptor Hydrophobic:             0.000000
##########         Total Energy: -66.13
##########        Ligand Charge:             1.000000
##########            Arbitrary:    +999.9990
##########     heavy atom count:   26
##########           pose count:    1
##########        Ligand Energy:             0.000000
# num electro vdwattr vdwrepu polsolv apolsol rdesolv rhydroe totalscore fullpol fullapo
#   1   -0.13   -0.42    0.03    0.03    0.01    0.00    0.00      -0.49    0.14    0.03
#   2    0.75   -0.32    0.01   -0.31    0.10    0.00    0.00       0.23   -1.92    0.63
#   3   -1.15   -0.42    0.01    0.03   -0.05    0.00    0.00      -1.57    0.21   -0.31
#   4    2.26   -0.43    0.01   -0.33   -0.07    0.00    0.00       1.44   -1.95   -0.42
#   5    1.34   -0.64    0.05   -0.25   -0.09    0.00    0.00       0.42   -1.21   -0.44
#   6    3.16   -0.63    0.03   -0.46   -0.08    0.00    0.00       2.03   -2.19   -0.37
#   7    1.84   -0.79    0.10   -0.46   -0.09    0.00    0.00       0.61   -2.06   -0.39
#   8   -1.06   -0.68    0.05    0.15   -0.07    0.00    0.00      -1.61    0.65   -0.31
#   9    3.94   -0.90    0.07   -1.41    0.23    0.00    0.00       1.93   -3.82    0.63
#  10   -0.47   -1.37    0.30    0.01    0.01    0.00    0.00      -1.52    0.02    0.03
#  11  -11.06   -0.57    0.04    3.08   -0.29    0.00    0.00      -8.79   10.86   -1.01
#  12   29.64   -2.67    2.81   -8.95    0.60    0.00    0.00      21.43  -20.16    1.36
#  13  -28.35   -2.54    0.66   11.35   -2.44    0.00    0.00     -21.33   22.15   -4.77
#  14   34.26   -4.93    1.95  -14.57    0.57    0.00    0.00      17.28  -24.23    0.94
#  15   18.00   -3.80    2.78   -7.84    0.50    0.00    0.00       9.63  -16.06    1.02
#  16  -13.17   -0.14    0.02    6.28    0.26    0.00    0.00      -6.75   13.61    0.57
#  17  -13.21   -2.12    0.74    5.21   -1.96    0.00    0.00     -11.35   12.35   -4.65
#  18   13.23   -3.42    1.91   -6.15    0.75    0.00    0.00       6.31  -11.99    1.46
#  19    8.90   -0.99    0.06   -3.49    0.22    0.00    0.00       4.69   -9.77    0.62
#  20    0.74   -1.03    0.08   -0.71    0.18    0.00    0.00      -0.74   -1.85    0.47
#  21   -0.94   -0.89    0.07    0.57   -0.06    0.00    0.00      -1.24    1.31   -0.13
#  22    1.18   -1.46    0.19   -0.48   -0.16    0.00    0.00      -0.73   -1.16   -0.39
#  23    1.26   -1.83    0.38   -0.53   -0.23    0.00    0.00      -0.95   -1.05   -0.45
#  24    1.32   -1.93    0.51   -0.60   -0.25    0.00    0.00      -0.96   -1.13   -0.47
#  25    0.79   -1.58    0.19   -0.58   -0.26    0.00    0.00      -1.44   -1.04   -0.47
#  26    0.75   -1.41    0.15   -0.60   -0.21    0.00    0.00      -1.33   -1.32   -0.47
#  27    0.56   -1.40    0.17   -0.41   -0.16    0.00    0.00      -1.25   -1.13   -0.45
#  28   -0.49   -0.14    0.01    0.13   -0.04    0.00    0.00      -0.53    0.86   -0.28
#  29   -0.91   -0.17    0.02    0.08   -0.04    0.00    0.00      -1.01    0.57   -0.26
#  30   -0.34   -0.17    0.03    0.09   -0.04    0.00    0.00      -0.43    0.66   -0.26
#  31   -1.53   -0.08    0.00    0.09   -0.02    0.00    0.00      -1.53    1.15   -0.21
#  32   -4.47   -0.22    0.05    0.24   -0.04    0.00    0.00      -4.43    1.56   -0.26
#  33   -1.48   -0.20    0.02    1.04   -0.04    0.00    0.00      -0.66    5.61   -0.19
#  34   -2.82   -0.75    0.43    0.70   -0.15    0.00    0.00      -2.59    1.31   -0.28
#  35   -0.30   -0.68    0.48    1.18   -0.12    0.00    0.00       0.57    2.57   -0.26
#  36   -1.42   -0.34    0.08    0.65   -0.10    0.00    0.00      -1.12    1.75   -0.26
#  37   -3.68   -0.16    0.01    0.87   -0.04    0.00    0.00      -3.00    5.70   -0.28
#  38  -27.40   -0.20    0.14    6.14    0.22    0.00    0.00     -21.10   16.54    0.60
#  39  -24.37   -0.12    0.01   10.34    0.37    0.00    0.00     -13.76   16.47    0.59
#  40  -17.69   -0.14    0.02   10.02    0.38    0.00    0.00      -7.41   15.61    0.59
#  41   -9.71   -0.13    0.03    3.36    0.31    0.00    0.00      -6.15    6.30    0.58
#  42   -1.31   -0.34    0.06    0.74   -0.08    0.00    0.00      -0.92    2.63   -0.28
#  43   -1.10   -0.34    0.05    0.43   -0.11    0.00    0.00      -1.07    1.13   -0.28
#  44   -2.42   -0.40    0.05    0.63   -0.14    0.00    0.00      -2.28    1.28   -0.28
#  45   -1.44   -0.65    0.80    0.43   -0.14    0.00    0.00      -1.00    0.88   -0.28
#  46   -0.87   -0.38    0.04    0.42   -0.14    0.00    0.00      -0.92    0.87   -0.28
#  47   -0.79   -0.31    0.04    0.44   -0.09    0.00    0.00      -0.70    1.38   -0.28
#  48   -0.40   -0.28    0.05    0.63   -0.07    0.00    0.00      -0.07    2.63   -0.28

@<TRIPOS>MOLECULE
          T530232        23
   48    50     0     0     0



@<TRIPOS>ATOM
      1 C1         -0.2249    -6.3653    91.5243 C.3        1           0.0209
      2 O1          0.6564    -7.4766    91.6986 O.3        1          -0.2987
      3 C2          1.8091    -7.2490    92.3836 C.ar       1           0.1340
      4 C3          2.9507    -6.8483    91.7083 C.ar       1          -0.1739
      5 C4          4.1212    -6.6168    92.4063 C.ar       1          -0.0612
      6 C5          4.1565    -6.7847    93.7781 C.ar       1          -0.1645
      7 C6          3.0212    -7.1849    94.4579 C.ar       1          -0.1558
      8 C7          1.8430    -7.4125    93.7650 C.ar       1           0.1021
      9 O2          0.7237    -7.8003    94.4331 O.3        1          -0.2977
     10 C8          0.8324    -7.9480    95.8502 C.3        1           0.0257
     11 C9          5.4353    -6.5316    94.5339 C.3        1           0.4423
     12 N1          5.8306    -5.1176    94.3977 N.pl3      1          -0.7004
     13 C10         5.1387    -4.1864    95.1288 C.cat      1           0.7490
     14 N2          5.0861    -2.8892    94.7013 N.pl3      1          -0.7855
     15 N3          4.5239    -4.5349    96.2402 N.pl3      1          -0.6172
     16 H1          4.0470    -3.8601    96.7482 H          1           0.4492
     17 C11         4.5405    -5.8051    96.6887 C.2        1           0.5952
     18 N4          3.9113    -6.1222    97.7930 N.2        1          -0.6584
     19 N5          5.2274    -6.7752    95.9742 N.pl3      1          -0.4905
     20 O3          5.7091    -7.9501    96.6006 O.3        1          -0.0683
     21 C12         7.0339    -7.8293    97.1225 C.3        1           0.0652
     22 C13         7.6267    -9.2020    97.3109 C.ar       1          -0.1056
     23 C14         8.5517    -9.4237    98.3138 C.ar       1          -0.0892
     24 C15         9.0955   -10.6829    98.4866 C.ar       1          -0.1199
     25 C16         8.7138   -11.7203    97.6566 C.ar       1          -0.0987
     26 C17         7.7881   -11.4988    96.6542 C.ar       1          -0.1206
     27 C18         7.2411   -10.2407    96.4843 C.ar       1          -0.0939
     28 H2         -1.1035    -6.6830    90.9628 H          1           0.1100
     29 H3         -0.5334    -5.9898    92.5000 H          1           0.0623
     30 H4          0.2900    -5.5755    90.9772 H          1           0.0601
     31 H5          2.9261    -6.7170    90.6364 H          1           0.1471
     32 H6          5.0104    -6.3045    91.8787 H          1           0.1436
     33 H7          3.0515    -7.3157    95.5295 H          1           0.1344
     34 H8         -0.1291    -8.2604    96.2578 H          1           0.1086
     35 H9          1.5864    -8.7008    96.0804 H          1           0.0488
     36 H10         1.1228    -6.9956    96.2935 H          1           0.0578
     37 H11         6.2262    -7.1796    94.1562 H          1           0.1628
     38 H12         6.5565    -4.8548    93.8103 H          1           0.4497
     39 H13         5.5376    -2.6295    93.8830 H          1           0.4440
     40 H14         4.5975    -2.2282    95.2164 H          1           0.4421
     41 H15         3.4314    -5.4414    98.2904 H          1           0.3650
     42 H16         7.6488    -7.2606    96.4250 H          1           0.0711
     43 H17         7.0007    -7.3131    98.0820 H          1           0.0712
     44 H18         8.8500    -8.6132    98.9623 H          1           0.1247
     45 H19         9.8187   -10.8559    99.2698 H          1           0.1296
     46 H20         9.1391   -12.7039    97.7911 H          1           0.1294
     47 H21         7.4902   -12.3092    96.0055 H          1           0.1297
     48 H22         6.5151   -10.0685    95.7034 H          1           0.1241
@<TRIPOS>BOND
     1    1    2 1
     2    1   28 1
     3    1   29 1
     4    1   30 1
     5    2    3 1
     6    3    8 ar
     7    3    4 ar
     8    4    5 ar
     9    4   31 1
    10    5    6 ar
    11    5   32 1
    12    6    7 ar
    13    6   11 1
    14    7    8 ar
    15    7   33 1
    16    8    9 1
    17    9   10 1
    18   10   34 1
    19   10   35 1
    20   10   36 1
    21   11   19 1
    22   11   12 1
    23   11   37 1
    24   12   13 1
    25   12   38 1
    26   13   14 1
    27   13   15 2
    28   14   39 1
    29   14   40 1
    30   15   16 1
    31   15   17 1
    32   17   18 2
    33   17   19 1
    34   18   41 1
    35   19   20 1
    36   20   21 1
    37   21   22 1
    38   21   42 1
    39   21   43 1
    40   22   27 ar
    41   22   23 ar
    42   23   24 ar
    43   23   44 1
    44   24   25 ar
    45   24   45 1
    46   25   26 ar
    47   25   46 1
    48   26   27 ar
    49   26   47 1
    50   27   48 1
##########                 Name:              T525416
##########          Protonation:                   19
##########               SMILES:   Cc1cc([nH]/c(=N\c2ccccc2)/[nH+]1)N[C@@H](Cc3ccccc3)C(=O)Nc4ccc(cc4)OC
##########            Long Name:   )-4-methyl-2-phenylimino-1H-pyrimidin-3-ium-6-yl]amino]-3-phenyl-propanamide
##########          FlexRecCode: 1
##########               Number:                  207
##########   Ligand Source File: /raidb/db2/rgc/tcams/tcams-0000064.db2.gz
##########           GlobalRank: 210
##########                 Rank:                    1
##########               Setnum:                  206
##########             Matchnum:                   95
##########                Cloud:                    1
##########        Electrostatic:           -41.867588
##########        Van der Waals:           -26.221596
##########  Ligand Polar Desolv:             4.600818
########## Ligand Apolar Desolv:            -2.636141
##########      Internal Energy:             0.000000
##########      Receptor Energy: 0.0
########## Receptor Desolvation:             0.000000
########## Receptor Hydrophobic:             0.000000
##########         Total Energy: -66.12
##########        Ligand Charge:             1.000000
##########            Arbitrary:    +999.9990
##########     heavy atom count:   34
##########           pose count:    1
##########        Ligand Energy:             0.000000
# num electro vdwattr vdwrepu polsolv apolsol rdesolv rhydroe totalscore fullpol fullapo
#   1   -0.42   -1.54    0.39    0.06    0.02    0.00    0.00      -1.50    0.10    0.03
#   2    3.37   -1.35    0.25   -0.63    0.43    0.00    0.00       2.08   -1.34    0.93
#   3   -1.35   -1.36    0.18    0.09   -0.12    0.00    0.00      -2.56    0.23   -0.31
#   4    1.25   -1.19    0.13   -0.46   -0.14    0.00    0.00      -0.42   -1.39   -0.42
#   5    0.55   -1.14    0.19   -0.26   -0.11    0.00    0.00      -0.77   -0.93   -0.40
#   6   -1.31   -1.46    0.51    0.40   -0.20    0.00    0.00      -2.06    1.38   -0.68
#   7   13.88   -1.05    0.18   -3.06    0.43    0.00    0.00      10.38  -11.51    1.62
#   8   -7.40   -0.56    0.03    1.90   -0.12    0.00    0.00      -6.14    9.17   -0.59
#   9    1.89   -1.00    0.27   -1.49    0.07    0.00    0.00      -0.28   -7.30    0.33
#  10   -2.35   -0.33    0.02    0.61   -0.04    0.00    0.00      -2.08    3.63   -0.24
#  11    1.98   -0.37    0.03   -0.39   -0.04    0.00    0.00       1.21   -2.13   -0.22
#  12    1.45   -0.42    0.02   -0.28   -0.04    0.00    0.00       0.74   -1.79   -0.23
#  13    0.75   -0.18    0.00   -0.17   -0.03    0.00    0.00       0.38   -2.27   -0.40
#  14    0.30   -0.23    0.00   -0.23   -0.04    0.00    0.00      -0.19   -2.36   -0.47
#  15    0.32   -0.55    0.04   -0.44   -0.09    0.00    0.00      -0.71   -2.36   -0.47
#  16    0.45   -1.48    0.58   -0.66   -0.13    0.00    0.00      -1.24   -2.47   -0.47
#  17    1.77   -1.25    0.30   -0.63   -0.11    0.00    0.00       0.08   -2.33   -0.42
#  18   20.56   -1.38    0.50   -3.68    0.32    0.00    0.00      16.32  -14.55    1.27
#  19  -13.08   -0.86    0.09    3.08   -0.46    0.00    0.00     -11.23   12.49   -1.87
#  20    8.61   -0.93    0.07   -2.41   -0.11    0.00    0.00       5.24   -8.29   -0.37
#  21   -7.11   -0.92    0.06    2.63   -0.23    0.00    0.00      -5.56    8.75   -0.75
#  22    3.90   -1.18    0.31   -1.81   -0.09    0.00    0.00       1.13   -4.26   -0.21
#  23    8.91   -0.78    0.05   -3.24    0.26    0.00    0.00       5.20  -11.96    0.97
#  24   -8.81   -0.01    0.00    1.76    0.09    0.00    0.00      -6.97   11.05    0.58
#  25   -5.23   -0.73    0.12    2.36   -0.96    0.00    0.00      -4.45   11.39   -4.62
#  26    7.79   -0.67    0.07   -2.65    0.20    0.00    0.00       4.74  -12.72    0.98
#  27    2.06   -0.61    0.05   -1.73    0.43    0.00    0.00       0.20   -8.26    2.04
#  28   -0.12   -0.40    0.02    0.18   -0.09    0.00    0.00      -0.41    1.21   -0.58
#  29    0.23   -0.70    0.09   -0.48   -0.08    0.00    0.00      -0.95   -2.12   -0.37
#  30    0.12   -0.50    0.02   -0.22   -0.09    0.00    0.00      -0.67   -1.14   -0.47
#  31    0.14   -0.22    0.00   -0.13   -0.04    0.00    0.00      -0.25   -1.55   -0.47
#  32    0.11   -0.14    0.00   -0.06   -0.03    0.00    0.00      -0.12   -1.05   -0.47
#  33    0.14   -0.22    0.00   -0.12   -0.04    0.00    0.00      -0.23   -1.46   -0.47
#  34    1.72   -2.53    1.69   -0.38   -0.17    0.00    0.00       0.35   -1.03   -0.46
#  35    2.00   -2.16    0.93   -0.49   -0.18    0.00    0.00       0.10   -1.26   -0.46
#  36   -1.87   -0.70    0.37    0.48   -0.15    0.00    0.00      -1.87    0.93   -0.28
#  37   -1.01   -0.45    0.09    0.22   -0.12    0.00    0.00      -1.28    0.47   -0.27
#  38   -1.17   -0.54    0.16    0.29   -0.13    0.00    0.00      -1.39    0.57   -0.26
#  39   -0.62   -0.24    0.02    0.22   -0.05    0.00    0.00      -0.68    0.93   -0.22
#  40   -0.55   -0.20    0.03    0.18   -0.03    0.00    0.00      -0.58    1.17   -0.22
#  41  -13.22   -0.03    0.00    2.65    0.13    0.00    0.00     -10.47   10.49    0.53
#  42   -1.53   -0.05    0.00    0.29   -0.01    0.00    0.00      -1.30    5.89   -0.20
#  43   -3.12   -0.29    0.09    0.37   -0.06    0.00    0.00      -3.01    1.72   -0.28
#  44   -1.61   -0.06    0.00    0.21   -0.01    0.00    0.00      -1.47    3.86   -0.25
#  45   -0.65   -0.02    0.00    0.14   -0.01    0.00    0.00      -0.54    4.88   -0.28
#  46   -0.25   -0.03    0.00    0.10   -0.01    0.00    0.00      -0.19    2.99   -0.28
#  47   -0.33   -0.12    0.01    0.18   -0.03    0.00    0.00      -0.29    1.70   -0.28
#  48   -0.52   -1.10    2.03    0.39   -0.08    0.00    0.00       0.72    1.31   -0.28
#  49   -4.42   -0.69    0.46    0.66   -0.09    0.00    0.00      -4.09    2.08   -0.28
#  50  -22.09   -0.09    0.01    2.54    0.16    0.00    0.00     -19.47    8.93    0.57
#  51   -5.89   -0.19    0.01    1.29   -0.03    0.00    0.00      -4.81    6.64   -0.16
#  52   -3.59   -0.38    0.09    1.33   -0.09    0.00    0.00      -2.64    4.22   -0.28
#  53   -2.80   -0.27    0.02    1.05   -0.09    0.00    0.00      -2.08    3.21   -0.28
#  54   -3.12   -0.90    0.96    1.63   -0.11    0.00    0.00      -1.53    4.21   -0.28
#  55   -3.86   -0.01    0.00    0.80    0.04    0.00    0.00      -3.03    8.30    0.43
#  56   -0.15   -0.36    0.20    0.62   -0.07    0.00    0.00       0.24    2.32   -0.28
#  57   -0.16   -0.17    0.02    0.34   -0.05    0.00    0.00      -0.02    1.96   -0.28
#  58   -0.15   -0.03    0.00    0.05   -0.01    0.00    0.00      -0.15    1.29   -0.28
#  59   -0.13   -0.02    0.00    0.03   -0.01    0.00    0.00      -0.13    1.16   -0.28
#  60   -0.20   -0.05    0.00    0.04   -0.01    0.00    0.00      -0.21    1.02   -0.28
#  61   -3.42   -0.53    0.24    1.18   -0.10    0.00    0.00      -2.64    3.16   -0.28
#  62   -2.51   -0.47    0.15    0.37   -0.10    0.00    0.00      -2.56    1.03   -0.28

@<TRIPOS>MOLECULE
          T525416        19
   62    65     0     0     0



@<TRIPOS>ATOM
      1 C1          8.9790    -9.3948    99.0026 C.3        1           0.0246
      2 O1          8.4268   -10.2057    97.9636 O.3        1          -0.3132
      3 C2          7.9940    -9.5653    96.8449 C.ar       1           0.1289
      4 C3          7.4418   -10.2917    95.8001 C.ar       1          -0.1909
      5 C4          7.0021    -9.6421    94.6637 C.ar       1          -0.0749
      6 C5          7.1124    -8.2613    94.5671 C.ar       1           0.0875
      7 N1          6.6660    -7.6015    93.4146 N.am       1          -0.6509
      8 C6          5.6433    -8.1110    92.6998 C.2        1           0.5062
      9 O2          5.1093    -9.1407    93.0543 O.2        1          -0.5066
     10 C7          5.1632    -7.4011    91.4601 C.3        1           0.1241
     11 C8          6.3089    -7.3068    90.4503 C.3        1          -0.0955
     12 C9          5.7463    -7.0641    89.0735 C.ar       1          -0.0999
     13 C10         5.4194    -8.1342    88.2618 C.ar       1          -0.1149
     14 C11         4.9033    -7.9115    86.9989 C.ar       1          -0.1109
     15 C12         4.7137    -6.6187    86.5480 C.ar       1          -0.1099
     16 C13         5.0397    -5.5485    87.3600 C.ar       1          -0.1147
     17 C14         5.5518    -5.7713    88.6246 C.ar       1          -0.1149
     18 N2          4.7113    -6.0532    91.8133 N.pl3      1          -0.6458
     19 C15         3.4034    -5.8386    92.1649 C.2        1           0.5637
     20 C16         3.0837    -5.3286    93.4124 C.2        1          -0.3383
     21 C17         1.7493    -5.1217    93.7394 C.2        1           0.3298
     22 C18         1.3866    -4.5671    95.0927 C.3        1          -0.1516
     23 N3          0.7981    -5.4077    92.8711 N.pl3      1          -0.5460
     24 H1         -0.1296    -5.2597    93.1127 H          1           0.4588
     25 C19         1.0881    -5.9003    91.6631 C.2        1           0.5686
     26 N4          2.3924    -6.1190    91.2878 N.pl3      1          -0.6335
     27 N5          0.1073    -6.1770    90.8156 N.2        1          -0.5039
     28 C20         0.3837    -6.7959    89.6299 C.ar       1           0.0764
     29 C21         0.6827    -6.0371    88.4945 C.ar       1          -0.1690
     30 C22         0.9612    -6.6692    87.3009 C.ar       1          -0.0964
     31 C23         0.9450    -8.0509    87.2254 C.ar       1          -0.1123
     32 C24         0.6493    -8.8088    88.3449 C.ar       1          -0.0944
     33 C25         0.3745    -8.1911    89.5469 C.ar       1          -0.1007
     34 C26         7.6648    -7.5348    95.6135 C.ar       1          -0.0931
     35 C27         8.0996    -8.1853    96.7513 C.ar       1          -0.1314
     36 H2          9.2841   -10.0290    99.8350 H          1           0.1057
     37 H3          9.8454    -8.8551    98.6206 H          1           0.0575
     38 H4          8.2287    -8.6821    99.3449 H          1           0.0578
     39 H5          7.3562   -11.3657    95.8752 H          1           0.1348
     40 H6          6.5728   -10.2078    93.8500 H          1           0.1349
     41 H7          7.0931    -6.7780    93.1310 H          1           0.4148
     42 H8          4.3359    -7.9580    91.0200 H          1           0.1414
     43 H9          6.9676    -6.4828    90.7242 H          1           0.0978
     44 H10         6.8732    -8.2395    90.4530 H          1           0.1099
     45 H11         5.5675    -9.1443    88.6143 H          1           0.1295
     46 H12         4.6486    -8.7476    86.3645 H          1           0.1305
     47 H13         4.3111    -6.4447    85.5610 H          1           0.1269
     48 H14         4.8918    -4.5385    87.0074 H          1           0.1228
     49 H15         5.8030    -4.9353    89.2603 H          1           0.1158
     50 H16         5.3372    -5.3124    91.7983 H          1           0.4319
     51 H17         3.8628    -5.0949    94.1229 H          1           0.1905
     52 H18         0.3032    -4.4737    95.1687 H          1           0.1272
     53 H19         1.7487    -5.2399    95.8702 H          1           0.1072
     54 H20         1.8454    -3.5864    95.2183 H          1           0.1217
     55 H21         2.5942    -6.4733    90.4076 H          1           0.4474
     56 H22         0.6955    -4.9588    88.5520 H          1           0.1212
     57 H23         1.1922    -6.0843    86.4228 H          1           0.1331
     58 H24         1.1639    -8.5403    86.2877 H          1           0.1344
     59 H25         0.6382    -9.8867    88.2782 H          1           0.1375
     60 H26         0.1483    -8.7839    90.4208 H          1           0.1346
     61 H27         7.7509    -6.4608    95.5391 H          1           0.1367
     62 H28         8.5256    -7.6199    97.5670 H          1           0.1412
@<TRIPOS>BOND
     1    1    2 1
     2    1   36 1
     3    1   37 1
     4    1   38 1
     5    2    3 1
     6    3   35 ar
     7    3    4 ar
     8    4    5 ar
     9    4   39 1
    10    5    6 ar
    11    5   40 1
    12    6    7 1
    13    6   34 ar
    14    7    8 am
    15    7   41 1
    16    8    9 2
    17    8   10 1
    18   10   11 1
    19   10   18 1
    20   10   42 1
    21   11   12 1
    22   11   43 1
    23   11   44 1
    24   12   17 ar
    25   12   13 ar
    26   13   14 ar
    27   13   45 1
    28   14   15 ar
    29   14   46 1
    30   15   16 ar
    31   15   47 1
    32   16   17 ar
    33   16   48 1
    34   17   49 1
    35   18   19 1
    36   18   50 1
    37   19   26 1
    38   19   20 2
    39   20   21 1
    40   20   51 1
    41   21   22 1
    42   21   23 2
    43   22   52 1
    44   22   53 1
    45   22   54 1
    46   23   24 1
    47   23   25 1
    48   25   26 1
    49   25   27 2
    50   26   55 1
    51   27   28 1
    52   28   33 ar
    53   28   29 ar
    54   29   30 ar
    55   29   56 1
    56   30   31 ar
    57   30   57 1
    58   31   32 ar
    59   31   58 1
    60   32   33 ar
    61   32   59 1
    62   33   60 1
    63   34   35 ar
    64   34   61 1
    65   35   62 1
##########                 Name:              T539027
##########          Protonation:                   89
##########               SMILES:   COc1cc(c2cc([nH]c2c1)C[NH2+]CCC[NH+]=c3[nH]c4ccccc4[nH]3)C(F)(F)F
##########            Long Name:   -[[6-methoxy-4-(trifluoromethyl)-1H-indol-2-yl]methylammonio]propyl]ammonium
##########          FlexRecCode: 1
##########               Number:                   72
##########   Ligand Source File: /raidb/db2/rgc/tcams/tcams-0001866.db2.gz
##########           GlobalRank: 210
##########                 Rank:                    1
##########               Setnum:                  336
##########             Matchnum:                 3182
##########                Cloud:                    1
##########        Electrostatic:           -53.323624
##########        Van der Waals:           -27.007301
##########  Ligand Polar Desolv:            17.432047
########## Ligand Apolar Desolv:            -3.222764
##########      Internal Energy:             0.000000
##########      Receptor Energy: 0.0
########## Receptor Desolvation:             0.000000
########## Receptor Hydrophobic:             0.000000
##########         Total Energy: -66.12
##########        Ligand Charge:             2.000000
##########            Arbitrary:    +999.9990
##########     heavy atom count:   30
##########           pose count:    1
##########        Ligand Energy:             0.000000
# num electro vdwattr vdwrepu polsolv apolsol rdesolv rhydroe totalscore fullpol fullapo
#   1   -0.42   -1.15    0.13    0.12    0.02    0.00    0.00      -1.30    0.21    0.03
#   2    7.19   -1.41    0.12   -2.13    0.48    0.00    0.00       4.25   -4.10    0.92
#   3   -3.37   -1.40    0.20    0.32   -0.13    0.00    0.00      -4.38    0.78   -0.31
#   4    2.50   -1.14    0.19   -0.89   -0.13    0.00    0.00       0.54   -2.72   -0.39
#   5    0.62   -0.71    0.07   -0.51   -0.09    0.00    0.00      -0.62   -2.14   -0.37
#   6    1.12   -0.86    0.22   -0.60   -0.09    0.00    0.00      -0.20   -2.85   -0.42
#   7    0.98   -0.51    0.04   -1.17   -0.09    0.00    0.00      -0.74   -6.61   -0.50
#   8    0.50   -0.95    0.13    1.20   -0.18    0.00    0.00       0.70    4.67   -0.71
#   9   -1.99   -0.71    0.16    1.12   -0.11    0.00    0.00      -1.52    4.61   -0.44
#  10   19.53   -2.10    3.23   -6.87    0.20    0.00    0.00      13.98  -25.57    0.73
#  11  -15.93   -0.03    0.00    5.48    0.13    0.00    0.00     -10.34   23.69    0.57
#  12  -26.09   -0.21    0.13    7.11    0.17    0.00    0.00     -18.89   24.05    0.57
#  13    0.14   -0.46    0.05    0.07   -0.09    0.00    0.00      -0.30    0.30   -0.40
#  14    3.90   -0.63    0.07   -2.40   -0.07    0.00    0.00       0.87   -8.46   -0.24
#  15   -1.10   -0.65    0.08    0.86   -0.12    0.00    0.00      -0.93    2.91   -0.41
#  16    8.59   -1.12    0.07  -10.11    0.62    0.00    0.00      -1.96  -26.58    1.64
#  17   -7.30   -0.02    0.00    5.13    0.14    0.00    0.00      -2.05   21.18    0.57
#  18   -6.71   -1.36    0.15   10.43   -1.90    0.00    0.00       0.61   27.15   -4.95
#  19    3.06   -1.42    0.16   -7.72    0.42    0.00    0.00      -5.50  -21.11    1.16
#  20   -0.53   -1.51    0.23    1.18   -0.35    0.00    0.00      -0.96    2.63   -0.77
#  21    0.66   -1.68    0.18   -1.45   -0.26    0.00    0.00      -2.54   -2.68   -0.48
#  22    0.47   -2.92    1.04   -2.01   -0.29    0.00    0.00      -3.70   -3.29   -0.47
#  23    0.33   -3.35    1.46   -1.98   -0.29    0.00    0.00      -3.83   -3.22   -0.47
#  24    0.86   -2.66    1.50   -1.67   -0.27    0.00    0.00      -2.24   -2.95   -0.48
#  25   -0.83   -1.89    0.69    1.11   -0.38    0.00    0.00      -1.31    2.24   -0.77
#  26    7.74   -1.70    0.28  -10.68    0.62    0.00    0.00      -3.73  -20.80    1.21
#  27   16.46   -2.14    0.87   -5.88    0.37    0.00    0.00       9.67  -17.77    1.12
#  28   -2.63   -2.13    1.57    0.86   -0.24    0.00    0.00      -2.57    2.84   -0.78
#  29    2.59   -2.68    1.93   -0.89   -0.17    0.00    0.00       0.77   -2.34   -0.46
#  30   -1.07   -0.36    0.02    1.41   -0.01    0.00    0.00      -0.01    6.79   -0.06
#  31    0.58   -0.92    0.36   -0.66   -0.13    0.00    0.00      -0.76   -2.24   -0.44
#  32    0.25   -0.18    0.00   -0.42   -0.08    0.00    0.00      -0.42   -2.54   -0.48
#  33    0.33   -0.21    0.01   -0.43   -0.08    0.00    0.00      -0.39   -2.49   -0.48
#  34   -1.59   -0.39    0.03    0.33   -0.13    0.00    0.00      -1.74    0.69   -0.27
#  35   -2.75   -0.38    0.08    0.52   -0.09    0.00    0.00      -2.62    1.57   -0.28
#  36   -1.63   -0.62    0.56    0.33   -0.10    0.00    0.00      -1.46    0.86   -0.27
#  37   -3.22   -0.43    0.31    0.31   -0.05    0.00    0.00      -3.07    1.23   -0.18
#  38   -0.82   -0.05    0.00    0.26   -0.01    0.00    0.00      -0.62    5.44   -0.28
#  39   -2.33   -0.07    0.00    0.65   -0.02    0.00    0.00      -1.76   10.16   -0.28
#  40   -5.25   -0.37    0.13    2.47   -0.07    0.00    0.00      -3.09    9.95   -0.28
#  41   -2.82   -0.10    0.00    0.95   -0.03    0.00    0.00      -2.00    9.49   -0.28
#  42   -1.87   -0.09    0.00    0.79   -0.02    0.00    0.00      -1.19    9.13   -0.28
#  43   -2.51   -0.34    0.13    1.35   -0.06    0.00    0.00      -1.45    5.90   -0.28
#  44   -3.39   -0.24    0.03    1.35   -0.06    0.00    0.00      -2.31    6.16   -0.28
#  45   -0.99   -0.21    0.03    1.17   -0.05    0.00    0.00      -0.05    6.55   -0.28
#  46   -0.40   -0.29    0.11    1.20   -0.05    0.00    0.00       0.57    6.39   -0.28
#  47   -0.93   -0.02    0.00    5.01    0.14    0.00    0.00       4.19   19.68    0.57
#  48   -1.39   -0.41    0.11    2.02   -0.12    0.00    0.00       0.22    4.89   -0.28
#  49   -0.91   -1.11    1.08    1.61   -0.16    0.00    0.00       0.50    2.76   -0.28
#  50    0.35   -1.34    1.61    1.61   -0.18    0.00    0.00       2.05    2.46   -0.28
#  51   -2.12   -0.96    2.05    2.07   -0.15    0.00    0.00       0.89    3.84   -0.28
#  52   -8.07   -0.03    0.00    7.91    0.27    0.00    0.00       0.08   17.45    0.59
#  53  -17.80   -0.05    0.00    6.22    0.22    0.00    0.00     -11.42   16.95    0.59
#  54   -3.29   -0.88    0.93    1.34   -0.12    0.00    0.00      -2.02    3.17   -0.28

@<TRIPOS>MOLECULE
          T539027        89
   54    57     0     0     0



@<TRIPOS>ATOM
      1 C1         -2.5779    -3.4471    93.4338 C.3        1           0.0174
      2 O1         -1.1736    -3.1903    93.4992 O.3        1          -0.3019
      3 C2         -0.3576    -4.0484    92.8316 C.ar       1           0.1782
      4 C3         -0.9074    -5.1141    92.1229 C.ar       1          -0.1593
      5 C4         -0.1019    -5.9851    91.4464 C.ar       1          -0.0829
      6 C5          1.2831    -5.8075    91.4643 C.ar       1          -0.1267
      7 C6          2.4089    -6.5315    90.8673 C.2        1          -0.1050
      8 C7          3.5280    -5.8885    91.2344 C.2        1          -0.0233
      9 C8          4.9261    -6.2917    90.8419 C.3        1           0.0738
     10 N1          5.8025    -6.2293    92.0191 N.4        1          -0.5124
     11 H1          6.7385    -6.4992    91.7562 H          1           0.4352
     12 H2          5.8133    -5.2873    92.3808 H          1           0.4292
     13 C9          5.3008    -7.1449    93.0524 C.3        1          -0.0062
     14 C10         6.2136    -7.0798    94.2785 C.3        1          -0.1685
     15 C11         5.6910    -8.0334    95.3547 C.3        1           0.0995
     16 N2          6.5652    -7.9710    96.5286 N.pl3      1          -0.6566
     17 H3          6.6869    -7.1313    96.9987 H          1           0.4443
     18 C12         7.1808    -9.0463    96.9424 C.cat      1           0.6648
     19 N3          7.0968   -10.2874    96.3638 N.pl3      1          -0.5779
     20 C13         7.8962   -11.1639    97.0966 C.ar       1           0.0769
     21 C14         8.1781   -12.5159    96.9634 C.ar       1          -0.0848
     22 C15         9.0273   -13.1339    97.8604 C.ar       1          -0.0740
     23 C16         9.5982   -12.4099    98.8925 C.ar       1          -0.0734
     24 C17         9.3231   -11.0638    99.0334 C.ar       1          -0.0836
     25 C18         8.4722   -10.4340    98.1369 C.ar       1           0.0800
     26 N4          8.0223    -9.1191    98.0234 N.pl3      1          -0.5769
     27 N5          3.2112    -4.8110    92.0183 N.pl3      1          -0.5857
     28 C19         1.8458    -4.7339    92.1778 C.ar       1           0.1662
     29 C20         1.0103    -3.8531    92.8569 C.ar       1          -0.1510
     30 C21        -0.7062    -7.1352    90.6830 C.3        1           0.5083
     31 F1         -2.0986    -7.1020    90.8146 F          1          -0.1689
     32 F2         -0.3630    -7.0291    89.3309 F          1          -0.1740
     33 F3         -0.2181    -8.3423    91.1947 F          1          -0.1699
     34 H4         -3.1127    -2.6902    94.0076 H          1           0.0660
     35 H5         -2.9053    -3.4139    92.3946 H          1           0.1156
     36 H6         -2.7867    -4.4330    93.8492 H          1           0.0651
     37 H7         -1.9783    -5.2527    92.1086 H          1           0.1572
     38 H8          2.3492    -7.4154    90.2496 H          1           0.1621
     39 H9          4.9145    -7.3091    90.4511 H          1           0.1452
     40 H10         5.2983    -5.6122    90.0752 H          1           0.1599
     41 H11         4.2897    -6.8532    93.3364 H          1           0.1420
     42 H12         5.2891    -8.1624    92.6617 H          1           0.1447
     43 H13         7.2248    -7.3715    93.9944 H          1           0.1099
     44 H14         6.2253    -6.0623    94.6691 H          1           0.1080
     45 H15         4.6799    -7.7417    95.6386 H          1           0.1059
     46 H16         5.6795    -9.0509    94.9640 H          1           0.1067
     47 H17         6.5718   -10.5157    95.5809 H          1           0.4541
     48 H18         7.7338   -13.0842    96.1596 H          1           0.1503
     49 H19         9.2463   -14.1863    97.7561 H          1           0.1576
     50 H20        10.2611   -12.8996    99.5906 H          1           0.1579
     51 H21         9.7700   -10.5021    99.8405 H          1           0.1516
     52 H22         8.2610    -8.3836    98.6090 H          1           0.4585
     53 H23         3.8531    -4.1944    92.4040 H          1           0.4229
     54 H24         1.4292    -3.0220    93.4050 H          1           0.1477
@<TRIPOS>BOND
     1    1    2 1
     2    1   34 1
     3    1   35 1
     4    1   36 1
     5    2    3 1
     6    3   29 ar
     7    3    4 ar
     8    4    5 ar
     9    4   37 1
    10    5    6 ar
    11    5   30 1
    12    6   28 ar
    13    6    7 1
    14    7    8 2
    15    7   38 1
    16    8    9 1
    17    8   27 1
    18    9   10 1
    19    9   39 1
    20    9   40 1
    21   10   11 1
    22   10   12 1
    23   10   13 1
    24   13   14 1
    25   13   41 1
    26   13   42 1
    27   14   15 1
    28   14   43 1
    29   14   44 1
    30   15   16 1
    31   15   45 1
    32   15   46 1
    33   16   17 1
    34   16   18 2
    35   18   26 1
    36   18   19 1
    37   19   20 1
    38   19   47 1
    39   20   25 ar
    40   20   21 ar
    41   21   22 ar
    42   21   48 1
    43   22   23 ar
    44   22   49 1
    45   23   24 ar
    46   23   50 1
    47   24   25 ar
    48   24   51 1
    49   25   26 1
    50   26   52 1
    51   27   28 1
    52   27   53 1
    53   28   29 ar
    54   29   54 1
    55   30   31 1
    56   30   32 1
    57   30   33 1
##########                 Name:              T541026
##########          Protonation:                   12
##########               SMILES:   c1cc(ccc1C(=O)Nc2ccc(cc2)[NH+]=C3NCCN3)C(=O)Nc4ccc(cc4)[NH+]=C5NCCN5
##########            Long Name:   -imidazolidin-2-ylideneammoniophenyl)carbamoyl]benzoyl]amino]phenyl]ammonium
##########          FlexRecCode: 1
##########               Number:                  309
##########   Ligand Source File: /raidb/db2/rgc/tcams/tcams-0002043.db2.gz
##########           GlobalRank: 210
##########                 Rank:                    1
##########               Setnum:                  175
##########             Matchnum:                 4338
##########                Cloud:                    1
##########        Electrostatic:           -44.962589
##########        Van der Waals:           -33.518391
##########  Ligand Polar Desolv:            15.093776
########## Ligand Apolar Desolv:            -2.732858
##########      Internal Energy:             0.000000
##########      Receptor Energy: 0.0
########## Receptor Desolvation:             0.000000
########## Receptor Hydrophobic:             0.000000
##########         Total Energy: -66.12
##########        Ligand Charge:             2.000000
##########            Arbitrary:    +999.9990
##########     heavy atom count:   36
##########           pose count:    1
##########        Ligand Energy:             0.000000
# num electro vdwattr vdwrepu polsolv apolsol rdesolv rhydroe totalscore fullpol fullapo
#   1    7.22   -0.38    0.01   -1.19    0.06    0.00    0.00       5.72   -6.60    0.33
#   2  -14.79   -0.93    0.17    1.90   -0.15    0.00    0.00     -13.80    8.20   -0.64
#   3   23.36   -1.57    0.56   -3.35    0.47    0.00    0.00      19.46  -11.68    1.63
#   4   -4.28   -1.02    0.11    0.55   -0.20    0.00    0.00      -4.83    1.86   -0.67
#   5    2.36   -1.16    0.09   -0.85   -0.14    0.00    0.00       0.30   -2.36   -0.40
#   6    3.30   -1.68    0.39   -1.19   -0.15    0.00    0.00       0.68   -2.85   -0.35
#   7   -1.67   -1.29    0.14    1.10   -0.25    0.00    0.00      -1.97    2.89   -0.66
#   8    1.46   -0.98    0.11   -0.69   -0.14    0.00    0.00      -0.25   -2.25   -0.46
#   9    1.89   -1.11    0.26   -0.67   -0.12    0.00    0.00       0.24   -2.55   -0.46
#  10   17.15   -2.24    0.63   -7.37    0.45    0.00    0.00       8.61  -16.36    0.99
#  11  -18.11   -0.09    0.01    6.06    0.25    0.00    0.00     -11.88   14.30    0.60
#  12  -17.58   -2.13    0.42   10.56   -2.42    0.00    0.00     -11.16   20.21   -4.64
#  13   16.14   -2.64    0.66  -10.71    0.89    0.00    0.00       4.35  -19.31    1.61
#  14   -1.86   -1.62    0.22    1.35   -0.38    0.00    0.00      -2.28    2.13   -0.60
#  15   -1.99   -1.51    0.25    1.55   -0.40    0.00    0.00      -2.10    2.33   -0.60
#  16   16.76   -2.53    0.40  -12.08    1.20    0.00    0.00       3.75  -19.73    1.96
#  17    3.28   -1.28    0.54   -0.48   -0.10    0.00    0.00       1.96   -2.04   -0.41
#  18    1.89   -0.67    0.07   -0.28   -0.09    0.00    0.00       0.92   -1.31   -0.44
#  19    1.07   -0.81    0.13   -0.30   -0.10    0.00    0.00      -0.01   -1.41   -0.46
#  20    2.34   -0.83    0.11   -0.49   -0.10    0.00    0.00       1.03   -2.05   -0.41
#  21    2.65   -1.62    0.59   -0.38   -0.13    0.00    0.00       1.12   -1.31   -0.44
#  22    2.12   -2.68    2.30   -0.43   -0.14    0.00    0.00       1.17   -1.42   -0.46
#  23   -8.04   -0.59    0.04    1.62   -0.12    0.00    0.00      -7.10    8.20   -0.63
#  24    4.03   -0.33    0.01   -0.91    0.05    0.00    0.00       2.85   -6.59    0.33
#  25   11.35   -0.82    0.07   -3.34    0.47    0.00    0.00       7.74  -11.61    1.64
#  26   -1.71   -0.67    0.04    0.51   -0.19    0.00    0.00      -2.03    1.84   -0.68
#  27    1.39   -1.58    0.41   -0.89   -0.15    0.00    0.00      -0.81   -2.37   -0.40
#  28    1.21   -1.53    0.52   -0.99   -0.11    0.00    0.00      -0.91   -3.04   -0.35
#  29   -0.08   -0.56    0.03    0.60   -0.14    0.00    0.00      -0.15    2.93   -0.67
#  30    0.12   -0.32    0.01   -0.30   -0.06    0.00    0.00      -0.55   -2.31   -0.46
#  31    0.23   -0.33    0.01   -0.32   -0.06    0.00    0.00      -0.47   -2.56   -0.46
#  32    0.44   -0.39    0.01   -2.62    0.16    0.00    0.00      -2.39  -16.28    1.00
#  33   -0.14    0.00    0.00    0.84    0.03    0.00    0.00       0.73   14.33    0.59
#  34   -0.67   -0.45    0.04    3.06   -0.71    0.00    0.00       1.26   20.13   -4.65
#  35    1.03   -1.49    1.13   -4.22    0.34    0.00    0.00      -3.20  -19.33    1.57
#  36   -0.08   -1.17    0.60    0.53   -0.15    0.00    0.00      -0.26    2.08   -0.60
#  37   -0.04   -0.37    0.04    0.40   -0.10    0.00    0.00      -0.08    2.32   -0.60
#  38    0.36   -0.28    0.01   -2.11    0.21    0.00    0.00      -1.81  -19.69    1.96
#  39  -20.24   -0.06    0.01    2.43    0.12    0.00    0.00     -17.75    9.36    0.45
#  40   -4.43   -0.24    0.01    0.34   -0.05    0.00    0.00      -4.36    1.46   -0.21
#  41   -3.77   -0.57    0.29    1.72   -0.10    0.00    0.00      -2.43    4.03   -0.23
#  42   -2.18   -0.17    0.01    0.83   -0.05    0.00    0.00      -1.56    4.94   -0.28
#  43   -1.79   -0.23    0.07    0.66   -0.05    0.00    0.00      -1.34    3.78   -0.28
#  44  -10.43   -0.06    0.00    5.75    0.20    0.00    0.00      -4.55   12.34    0.43
#  45   -2.74   -0.73    0.15    2.07   -0.16    0.00    0.00      -1.42    3.57   -0.28
#  46   -2.72   -0.69    0.40    1.64   -0.13    0.00    0.00      -1.52    3.48   -0.28
#  47   -2.83   -0.69    0.25    2.02   -0.15    0.00    0.00      -1.40    3.66   -0.28
#  48   -2.82   -0.46    0.10    1.65   -0.13    0.00    0.00      -1.66    3.65   -0.28
#  49  -11.37   -0.06    0.00    8.99    0.36    0.00    0.00      -2.07   14.65    0.59
#  50   -2.08   -0.09    0.00    0.36   -0.02    0.00    0.00      -1.83    4.17   -0.22
#  51   -1.97   -0.20    0.06    0.32   -0.04    0.00    0.00      -1.83    2.17   -0.26
#  52   -4.27   -0.31    0.07    1.02   -0.05    0.00    0.00      -3.54    4.10   -0.22
#  53   -6.52   -0.88    0.88    0.72   -0.09    0.00    0.00      -5.90    2.12   -0.26
#  54  -10.21   -0.02    0.00    2.25    0.11    0.00    0.00      -7.87    9.28    0.46
#  55   -3.38   -0.53    0.14    0.66   -0.09    0.00    0.00      -3.20    1.51   -0.21
#  56   -1.48   -0.63    0.74    1.32   -0.07    0.00    0.00      -0.12    4.19   -0.21
#  57   -0.16   -0.03    0.00    0.17   -0.01    0.00    0.00      -0.03    4.98   -0.28
#  58   -0.28   -0.04    0.00    0.14   -0.01    0.00    0.00      -0.19    3.75   -0.28
#  59   -0.94   -0.04    0.00    2.45    0.08    0.00    0.00       1.56   12.33    0.41
#  60   -0.13   -0.26    0.07    0.72   -0.06    0.00    0.00       0.36    3.60   -0.28
#  61   -0.12   -1.12    2.01    1.27   -0.10    0.00    0.00       1.94    3.51   -0.28
#  62   -0.04   -0.07    0.00    0.22   -0.02    0.00    0.00       0.10    3.69   -0.28
#  63   -0.04   -0.12    0.01    0.47   -0.04    0.00    0.00       0.29    3.67   -0.28
#  64   -0.13    0.00    0.00    0.44    0.02    0.00    0.00       0.33   14.67    0.59

@<TRIPOS>MOLECULE
          T541026        12
   64    68     0     0     0



@<TRIPOS>ATOM
      1 O1          3.4369    -6.8109    91.1734 O.2        1          -0.5027
      2 C1          4.4158    -6.2895    91.6709 C.2        1           0.5633
      3 N1          4.2766    -5.4658    92.7284 N.am       1          -0.6713
      4 C2          3.0044    -5.2104    93.2540 C.ar       1           0.1675
      5 C3          2.8578    -4.9207    94.6051 C.ar       1          -0.0893
      6 C4          1.6064    -4.6686    95.1261 C.ar       1          -0.1290
      7 C5          0.4855    -4.7047    94.2939 C.ar       1           0.0684
      8 C6          0.6367    -4.9952    92.9373 C.ar       1          -0.0843
      9 C7          1.8917    -5.2414    92.4221 C.ar       1          -0.1119
     10 N2         -0.7602    -4.4547    94.8088 N.pl3      1          -0.5840
     11 H1         -1.1155    -5.0182    95.5140 H          1           0.4455
     12 C8         -1.4721    -3.4531    94.3478 C.cat      1           0.7110
     13 N3         -1.0338    -2.4993    93.4640 N.pl3      1          -0.6846
     14 C9         -2.1933    -1.9610    92.7474 C.3        1           0.0792
     15 C10        -3.3949    -2.5437    93.4997 C.3        1           0.0834
     16 N4         -2.7824    -3.1881    94.6649 N.pl3      1          -0.6831
     17 C11         5.7611    -6.5643    91.1191 C.ar       1          -0.1094
     18 C12         6.5103    -7.6359    91.6079 C.ar       1          -0.0890
     19 C13         7.7631    -7.8917    91.0942 C.ar       1          -0.0584
     20 C14         8.2827    -7.0797    90.0847 C.ar       1          -0.1105
     21 C15         7.5330    -6.0086    89.5953 C.ar       1          -0.0886
     22 C16         6.2786    -5.7554    90.1061 C.ar       1          -0.0584
     23 C17         9.6283    -7.3539    89.5337 C.2        1           0.5630
     24 O2         10.0766    -8.4835    89.5584 O.2        1          -0.5006
     25 N5         10.3568    -6.3511    89.0044 N.am       1          -0.6705
     26 C18        11.6300    -6.6107    88.4828 C.ar       1           0.1692
     27 C19        12.6088    -5.6250    88.5212 C.ar       1          -0.0902
     28 C20        13.8636    -5.8772    88.0086 C.ar       1          -0.1363
     29 C21        14.1504    -7.1247    87.4508 C.ar       1           0.0722
     30 C22        13.1648    -8.1125    87.4146 C.ar       1          -0.0853
     31 C23        11.9135    -7.8551    87.9334 C.ar       1          -0.1119
     32 N6         15.3969    -7.3784    86.9400 N.pl3      1          -0.5824
     33 H2         16.1772    -7.3208    87.5134 H          1           0.4459
     34 C24        15.5346    -7.7001    85.6750 C.cat      1           0.7100
     35 N7         14.5114    -7.6644    84.7709 N.pl3      1          -0.6858
     36 C25        15.0174    -8.0844    83.4569 C.3        1           0.0779
     37 C26        16.5086    -8.3829    83.6950 C.3        1           0.0834
     38 N8         16.7175    -8.1002    85.1217 N.pl3      1          -0.6826
     39 H3          5.0578    -5.0497    93.1254 H          1           0.4185
     40 H4          3.7253    -4.8933    95.2481 H          1           0.1552
     41 H5          1.4931    -4.4444    96.1764 H          1           0.1394
     42 H6         -0.2282    -5.0239    92.2910 H          1           0.1475
     43 H7          2.0097    -5.4625    91.3716 H          1           0.1483
     44 H8         -0.1117    -2.2270    93.3354 H          1           0.4533
     45 H9         -2.2022    -0.8722    92.7976 H          1           0.1180
     46 H10        -2.1919    -2.2970    91.7105 H          1           0.1179
     47 H11        -4.0767    -1.7514    93.8087 H          1           0.1192
     48 H12        -3.9137    -3.2795    92.8855 H          1           0.1182
     49 H13        -3.2226    -3.3889    95.5055 H          1           0.4548
     50 H14         6.1083    -8.2642    92.3889 H          1           0.1381
     51 H15         8.3430    -8.7204    91.4728 H          1           0.1503
     52 H16         7.9352    -5.3801    88.8146 H          1           0.1381
     53 H17         5.6971    -4.9290    89.7249 H          1           0.1504
     54 H18         9.9992    -5.4498    88.9846 H          1           0.4188
     55 H19        12.3862    -4.6604    88.9526 H          1           0.1534
     56 H20        14.6237    -5.1106    88.0380 H          1           0.1411
     57 H21        13.3833    -9.0784    86.9836 H          1           0.1481
     58 H22        11.1517    -8.6203    87.9093 H          1           0.1486
     59 H23        13.5975    -7.4040    84.9652 H          1           0.4541
     60 H24        14.4991    -8.9817    83.1187 H          1           0.1182
     61 H25        14.9016    -7.2804    82.7300 H          1           0.1180
     62 H26        16.7276    -9.4269    83.4739 H          1           0.1194
     63 H27        17.1296    -7.7254    83.0854 H          1           0.1182
     64 H28        17.5598    -8.1861    85.5951 H          1           0.4549
@<TRIPOS>BOND
     1    1    2 2
     2    2    3 am
     3    2   17 1
     4    3    4 1
     5    3   39 1
     6    4    9 ar
     7    4    5 ar
     8    5    6 ar
     9    5   40 1
    10    6    7 ar
    11    6   41 1
    12    7    8 ar
    13    7   10 1
    14    8    9 ar
    15    8   42 1
    16    9   43 1
    17   10   11 1
    18   10   12 2
    19   12   16 1
    20   12   13 1
    21   13   14 1
    22   13   44 1
    23   14   15 1
    24   14   45 1
    25   14   46 1
    26   15   16 1
    27   15   47 1
    28   15   48 1
    29   16   49 1
    30   17   22 ar
    31   17   18 ar
    32   18   19 ar
    33   18   50 1
    34   19   20 ar
    35   19   51 1
    36   20   21 ar
    37   20   23 1
    38   21   22 ar
    39   21   52 1
    40   22   53 1
    41   23   24 2
    42   23   25 am
    43   25   26 1
    44   25   54 1
    45   26   31 ar
    46   26   27 ar
    47   27   28 ar
    48   27   55 1
    49   28   29 ar
    50   28   56 1
    51   29   30 ar
    52   29   32 1
    53   30   31 ar
    54   30   57 1
    55   31   58 1
    56   32   33 1
    57   32   34 2
    58   34   38 1
    59   34   35 1
    60   35   36 1
    61   35   59 1
    62   36   37 1
    63   36   60 1
    64   36   61 1
    65   37   38 1
    66   37   62 1
    67   37   63 1
    68   38   64 1
##########                 Name:              T540842
##########          Protonation:                   44
##########               SMILES:   [H]/N=C/1\[NH+]=C(NC2(N1OCCCOc3cc(c(cc3Cl)Cl)Cl)CCCCC2)N
##########            Long Name:   ,5-trichlorophenoxy)propoxy]-7,11-diaza-9-azoniaspiro[5.5]undec-8-en-8-amine
##########          FlexRecCode: 1
##########               Number:                   33
##########   Ligand Source File: /raidb/db2/rgc/tcams/tcams-0002034.db2.gz
##########           GlobalRank: 211
##########                 Rank:                    1
##########               Setnum:                   36
##########             Matchnum:                  229
##########                Cloud:                    1
##########        Electrostatic:           -34.838497
##########        Van der Waals:           -33.642315
##########  Ligand Polar Desolv:             6.322921
########## Ligand Apolar Desolv:            -3.935426
##########      Internal Energy:             0.000000
##########      Receptor Energy: 0.0
########## Receptor Desolvation:             0.000000
########## Receptor Hydrophobic:             0.000000
##########         Total Energy: -66.09
##########        Ligand Charge:             1.000000
##########            Arbitrary:    +999.9990
##########     heavy atom count:   27
##########           pose count:    1
##########        Ligand Energy:             0.000000
# num electro vdwattr vdwrepu polsolv apolsol rdesolv rhydroe totalscore fullpol fullapo
#   1   22.20   -1.68    0.35   -9.64    0.38    0.00    0.00      11.62  -23.81    0.94
#   2  -17.94   -1.03    0.09    7.32   -1.58    0.00    0.00     -13.13   21.91   -4.72
#   3   16.58   -1.42    0.36   -6.78    0.43    0.00    0.00       9.16  -16.09    1.01
#   4  -17.32   -0.07    0.01    4.97    0.21    0.00    0.00     -12.20   13.80    0.57
#   5  -10.44   -0.98    0.06    4.62   -1.73    0.00    0.00      -8.46   12.25   -4.58
#   6    8.16   -1.89    0.40   -5.64    0.67    0.00    0.00       1.71  -12.22    1.46
#   7    8.16   -0.64    0.02   -2.19    0.16    0.00    0.00       5.51   -9.35    0.69
#   8    1.24   -0.57    0.02   -0.46    0.08    0.00    0.00       0.31   -1.84    0.31
#   9   -0.45   -0.80    0.08    0.24   -0.04    0.00    0.00      -0.99    0.65   -0.12
#  10    3.55   -1.13    0.20   -0.66   -0.11    0.00    0.00       1.85   -1.47   -0.25
#  11   -1.33   -1.02    0.20    0.23   -0.04    0.00    0.00      -1.95    0.59   -0.09
#  12    4.61   -1.10    0.09   -1.25    0.36    0.00    0.00       2.71   -2.92    0.84
#  13   -1.99   -1.41    0.15    0.59   -0.13    0.00    0.00      -2.80    1.37   -0.31
#  14    1.31   -1.38    0.17   -0.57   -0.15    0.00    0.00      -0.63   -1.57   -0.42
#  15   -0.07   -1.51    0.24    0.00   -0.12    0.00    0.00      -1.47    0.01   -0.29
#  16    0.15   -4.01    1.75   -0.12   -0.43    0.00    0.00      -2.67   -0.26   -0.95
#  17    0.51   -1.79    0.53   -0.25   -0.15    0.00    0.00      -1.15   -0.49   -0.29
#  18    0.16   -4.92    1.59   -0.16   -0.58    0.00    0.00      -3.91   -0.27   -0.95
#  19    0.70   -2.13    0.67   -0.17   -0.24    0.00    0.00      -1.17   -0.32   -0.45
#  20    0.90   -1.89    0.28   -0.28   -0.16    0.00    0.00      -1.15   -0.52   -0.29
#  21    0.59   -7.34    3.37   -0.18   -0.62    0.00    0.00      -4.18   -0.28   -0.97
#  22   -6.93   -0.36    0.01    2.02   -0.06    0.00    0.00      -5.31    9.68   -0.27
#  23    0.96   -0.28    0.01   -0.41   -0.03    0.00    0.00       0.25   -2.58   -0.21
#  24    0.41   -0.45    0.08   -0.29   -0.04    0.00    0.00      -0.29   -1.73   -0.24
#  25    1.35   -0.23    0.01   -0.24   -0.03    0.00    0.00       0.85   -1.80   -0.25
#  26    3.35   -0.51    0.08   -0.47   -0.05    0.00    0.00       2.40   -2.25   -0.23
#  27    3.32   -0.67    0.09   -0.70   -0.05    0.00    0.00       1.99   -2.67   -0.19
#  28   13.00   -0.80    0.05   -5.34    0.41    0.00    0.00       7.33  -19.19    1.49
#  29  -10.62   -0.02    0.00    3.71    0.14    0.00    0.00      -6.79   15.81    0.59
#  30  -16.37   -0.06    0.00    6.00    0.23    0.00    0.00     -10.20   15.53    0.59
#  31   -5.61   -0.04    0.00    2.99    0.27    0.00    0.00      -2.38    6.41    0.58
#  32   -2.07   -0.30    0.03    0.66   -0.06    0.00    0.00      -1.74    2.30   -0.22
#  33   -1.41   -0.29    0.04    0.34   -0.08    0.00    0.00      -1.40    1.22   -0.28
#  34   -4.34   -0.63    0.74    0.18   -0.10    0.00    0.00      -4.15    0.48   -0.28
#  35   -2.78   -0.67    0.53    0.49   -0.14    0.00    0.00      -2.57    1.00   -0.28
#  36   -1.31   -0.19    0.02    0.34   -0.04    0.00    0.00      -1.18    1.99   -0.26
#  37   -1.66   -0.92    1.04    0.59   -0.10    0.00    0.00      -1.06    1.54   -0.26
#  38   -0.66   -0.26    0.04    0.71   -0.05    0.00    0.00      -0.22    3.04   -0.22
#  39   -2.78   -0.58    0.26    0.53   -0.14    0.00    0.00      -2.71    1.08   -0.28
#  40   -0.39   -0.11    0.00    0.19   -0.03    0.00    0.00      -0.34    1.65   -0.27
#  41   -0.52   -0.06    0.00    0.18   -0.02    0.00    0.00      -0.41    3.12   -0.28
#  42    0.14   -0.32    0.17    0.04   -0.05    0.00    0.00      -0.02    0.25   -0.27
#  43   -0.01   -0.16    0.04    0.07   -0.03    0.00    0.00      -0.10    0.59   -0.28
#  44   -0.71   -0.06    0.00    0.00   -0.01    0.00    0.00      -0.78    0.06   -0.28
#  45   -0.61   -0.05    0.00    0.05   -0.01    0.00    0.00      -0.62    1.27   -0.28
#  46   -2.46   -0.13    0.01    0.11   -0.02    0.00    0.00      -2.48    1.00   -0.16
#  47   -2.79   -0.31    0.14    0.17   -0.05    0.00    0.00      -2.85    0.92   -0.28
#  48   -2.14   -0.24    0.04    0.74   -0.06    0.00    0.00      -1.66    3.46   -0.28
#  49   -3.19   -0.39    0.11    0.73   -0.06    0.00    0.00      -2.80    2.52   -0.22
#  50   -7.27   -0.02    0.00    3.30    0.13    0.00    0.00      -3.87   15.04    0.58

@<TRIPOS>MOLECULE
          T540842        44
   50    52     0     0     0



@<TRIPOS>ATOM
      1 N1         -0.8068    -5.0576    94.2222 N.pl3      1          -0.7847
      2 C1          0.4622    -5.5611    94.2884 C.cat      1           0.7432
      3 N2          0.8348    -6.2628    95.3386 N.pl3      1          -0.6216
      4 H1          0.2016    -6.4049    96.0597 H          1           0.4493
      5 C2          2.0707    -6.7893    95.4393 C.2        1           0.5874
      6 N3          2.4046    -7.4919    96.4934 N.2        1          -0.6601
      7 N4          2.9879    -6.5824    94.4185 N.pl3      1          -0.4801
      8 O1          4.3825    -6.6544    94.6530 O.3        1          -0.0630
      9 C3          4.8591    -5.7136    95.6171 C.3        1           0.0177
     10 C4          6.3668    -5.5218    95.4403 C.3        1          -0.1149
     11 C5          7.0782    -6.8616    95.6401 C.3        1           0.0609
     12 O2          6.8112    -7.3510    96.9559 O.3        1          -0.2891
     13 C6          7.3732    -8.5407    97.2976 C.ar       1           0.1567
     14 C7          7.0727    -9.6842    96.5727 C.ar       1          -0.1825
     15 C8          7.6456   -10.8932    96.9216 C.ar       1           0.0112
     16 Cl1         7.2700   -12.3249    96.0146 Cl         1          -0.0299
     17 C9          8.5195   -10.9626    97.9937 C.ar       1          -0.0568
     18 Cl2         9.2381   -12.4815    98.4295 Cl         1          -0.0269
     19 C10         8.8207    -9.8230    98.7175 C.ar       1          -0.0491
     20 C11         8.2530    -8.6114    98.3690 C.ar       1          -0.0552
     21 Cl3         8.6361    -7.1804    99.2741 Cl         1          -0.0268
     22 C12         2.4491    -6.2843    93.0817 C.3        1           0.4117
     23 C13         1.9329    -7.5664    92.4348 C.3        1          -0.1315
     24 C14         3.0891    -8.5549    92.2652 C.3        1          -0.1166
     25 C15         4.1703    -7.9272    91.3831 C.3        1          -0.1247
     26 C16         4.6904    -6.6491    92.0440 C.3        1          -0.1347
     27 C17         3.5368    -5.6576    92.2141 C.3        1          -0.1291
     28 N5          1.3399    -5.3378    93.2574 N.pl3      1          -0.6966
     29 H2         -1.0857    -4.5456    93.4472 H          1           0.4451
     30 H3         -1.4298    -5.2158    94.9487 H          1           0.4420
     31 H4          1.7608    -7.6347    97.2048 H          1           0.3656
     32 H5          4.3523    -4.7591    95.4746 H          1           0.0681
     33 H6          4.6556    -6.0869    96.6207 H          1           0.0684
     34 H7          6.5703    -5.1484    94.4367 H          1           0.0968
     35 H8          6.7304    -4.8041    96.1757 H          1           0.0952
     36 H9          6.7146    -7.5793    94.9047 H          1           0.0715
     37 H10         8.1522    -6.7249    95.5142 H          1           0.0707
     38 H11         6.3914    -9.6304    95.7366 H          1           0.1532
     39 H12         9.5025    -9.8788    99.5532 H          1           0.1640
     40 H13         1.1658    -8.0101    93.0693 H          1           0.0697
     41 H14         1.5071    -7.3345    91.4584 H          1           0.1004
     42 H15         3.5099    -8.7931    93.2421 H          1           0.0807
     43 H16         2.7213    -9.4673    91.7955 H          1           0.0805
     44 H17         4.9923    -8.6323    91.2589 H          1           0.0788
     45 H18         3.7484    -7.6859    90.4075 H          1           0.0673
     46 H19         5.1096    -6.8898    93.0210 H          1           0.1012
     47 H20         5.4628    -6.2040    91.4168 H          1           0.0813
     48 H21         3.1236    -5.4101    91.2363 H          1           0.1027
     49 H22         3.9054    -4.7502    92.6927 H          1           0.0848
     50 H23         1.2334    -4.5776    92.6643 H          1           0.4475
@<TRIPOS>BOND
     1    1    2 1
     2    1   29 1
     3    1   30 1
     4    2   28 1
     5    2    3 2
     6    3    4 1
     7    3    5 1
     8    5    6 2
     9    5    7 1
    10    6   31 1
    11    7    8 1
    12    7   22 1
    13    8    9 1
    14    9   10 1
    15    9   32 1
    16    9   33 1
    17   10   11 1
    18   10   34 1
    19   10   35 1
    20   11   12 1
    21   11   36 1
    22   11   37 1
    23   12   13 1
    24   13   20 ar
    25   13   14 ar
    26   14   15 ar
    27   14   38 1
    28   15   16 1
    29   15   17 ar
    30   17   18 1
    31   17   19 ar
    32   19   20 ar
    33   19   39 1
    34   20   21 1
    35   22   27 1
    36   22   23 1
    37   22   28 1
    38   23   24 1
    39   23   40 1
    40   23   41 1
    41   24   25 1
    42   24   42 1
    43   24   43 1
    44   25   26 1
    45   25   44 1
    46   25   45 1
    47   26   27 1
    48   26   46 1
    49   26   47 1
    50   27   48 1
    51   27   49 1
    52   28   50 1
##########                 Name:              T533458
##########          Protonation:                   15
##########               SMILES:   [C@](N=C(N2)[NH+]=c4[nH]c5ccccc5[nH]4)(N=C(N3)N=c6[nH]c7ccccc7[nH]6)c8ccccc8
##########            Long Name:   ydroimidazo[4,5-d]imidazol-2-yl]-(1,3-dihydrobenzimidazol-2-ylidene)ammonium
##########          FlexRecCode: 1
##########               Number:                   81
##########   Ligand Source File: /raidb/db2/rgc/tcams/tcams-0001084.db2.gz
##########           GlobalRank: 214
##########                 Rank:                    1
##########               Setnum:                   21
##########             Matchnum:                 3093
##########                Cloud:                    1
##########        Electrostatic:           -50.278728
##########        Van der Waals:           -20.162571
##########  Ligand Polar Desolv:             9.207269
########## Ligand Apolar Desolv:            -4.847000
##########      Internal Energy:             0.000000
##########      Receptor Energy: 0.0
########## Receptor Desolvation:             0.000000
########## Receptor Hydrophobic:             0.000000
##########         Total Energy: -66.08
##########        Ligand Charge:             1.000000
##########            Arbitrary:    +999.9990
##########     heavy atom count:   40
##########           pose count:    1
##########        Ligand Energy:             0.000000
# num electro vdwattr vdwrepu polsolv apolsol rdesolv rhydroe totalscore fullpol fullapo
#   1    1.83   -1.26    0.54   -1.03    0.28    0.00    0.00       0.36   -4.35    1.20
#   2   -2.29   -0.64    0.15    0.57   -0.79    0.00    0.00      -3.00    3.56   -4.93
#   3    3.81   -0.71    0.09   -0.78    0.23    0.00    0.00       2.64   -3.75    1.12
#   4   -0.33   -1.21    0.28    0.07   -0.21    0.00    0.00      -1.40    0.25   -0.78
#   5    0.62   -1.20    0.17   -0.30   -0.15    0.00    0.00      -0.87   -0.98   -0.48
#   6    0.47   -1.46    0.19   -0.40   -0.18    0.00    0.00      -1.38   -1.06   -0.47
#   7    0.43   -2.10    0.60   -0.50   -0.21    0.00    0.00      -1.78   -1.11   -0.47
#   8    0.52   -2.95    2.08   -0.40   -0.19    0.00    0.00      -0.93   -0.99   -0.48
#   9   -0.25   -1.85    0.85    0.12   -0.24    0.00    0.00      -1.36    0.40   -0.78
#  10    1.86   -0.26    0.02   -0.35    0.21    0.00    0.00       1.48   -3.53    2.14
#  11   -3.95   -0.18    0.00    0.30   -0.37    0.00    0.00      -4.19    3.91   -4.86
#  12    3.41   -0.14    0.00   -0.33    0.13    0.00    0.00       3.07   -5.06    1.93
#  13   -3.20   -0.17    0.00    0.35   -0.05    0.00    0.00      -3.06    3.36   -0.44
#  14    8.06   -0.49    0.02   -1.70    0.38    0.00    0.00       6.27   -8.73    1.93
#  15  -17.34   -1.47    0.55    2.91   -1.30    0.00    0.00     -16.65   10.88   -4.84
#  16   23.42   -1.69    0.78   -3.17    0.39    0.00    0.00      19.74  -12.05    1.47
#  17   -6.65   -0.27    0.01    0.73   -0.07    0.00    0.00      -6.25    4.67   -0.45
#  18    8.74   -0.26    0.01   -0.78    0.17    0.00    0.00       7.88   -6.80    1.50
#  19    1.45   -0.45    0.02   -0.14   -0.04    0.00    0.00       0.83   -0.84   -0.26
#  20    1.98   -1.10    0.15   -0.24   -0.12    0.00    0.00       0.67   -0.79   -0.40
#  21    2.78   -1.21    0.12   -0.38   -0.18    0.00    0.00       1.13   -1.01   -0.47
#  22    2.05   -1.57    0.56   -0.35   -0.15    0.00    0.00       0.55   -1.07   -0.47
#  23    1.09   -0.84    0.25   -0.26   -0.09    0.00    0.00       0.14   -1.31   -0.47
#  24    0.88   -0.32    0.01   -0.12   -0.05    0.00    0.00       0.41   -0.99   -0.42
#  25   24.46   -3.74    4.14   -4.12    0.35    0.00    0.00      21.09  -12.28    1.04
#  26  -31.36   -0.31    0.14    5.70    0.25    0.00    0.00     -25.58   13.62    0.60
#  27  -17.68   -1.44    0.35    4.28   -1.45    0.00    0.00     -15.95   14.48   -4.91
#  28    7.36   -0.55    0.03   -1.97    0.22    0.00    0.00       5.09  -10.05    1.12
#  29   -1.03   -0.57    0.03    0.19   -0.16    0.00    0.00      -1.54    0.93   -0.78
#  30    0.76   -0.64    0.04   -0.42   -0.11    0.00    0.00      -0.37   -1.81   -0.48
#  31    1.71   -1.80    1.18   -0.53   -0.15    0.00    0.00       0.41   -1.68   -0.47
#  32    2.14   -1.61    0.39   -0.71   -0.18    0.00    0.00       0.02   -1.84   -0.47
#  33    2.00   -1.33    0.15   -0.62   -0.18    0.00    0.00       0.01   -1.62   -0.48
#  34   -1.60   -1.06    0.14    0.51   -0.24    0.00    0.00      -2.26    1.67   -0.78
#  35   15.26   -2.15    1.10   -4.45    0.44    0.00    0.00      10.19  -12.22    1.20
#  36    0.22   -0.27    0.01   -0.04   -0.03    0.00    0.00      -0.12   -0.40   -0.26
#  37    0.19   -0.20    0.00   -0.05   -0.03    0.00    0.00      -0.08   -0.62   -0.40
#  38    0.26   -0.37    0.03   -0.10   -0.06    0.00    0.00      -0.24   -0.84   -0.47
#  39    0.26   -0.59    0.04   -0.20   -0.10    0.00    0.00      -0.60   -0.96   -0.47
#  40    0.31   -0.90    0.13   -0.30   -0.12    0.00    0.00      -0.88   -1.16   -0.47
#  41    0.28   -0.74    0.10   -0.18   -0.09    0.00    0.00      -0.62   -0.86   -0.42
#  42   -1.89   -0.01    0.00    0.78    0.11    0.00    0.00      -1.02    4.37    0.60
#  43   -5.05   -0.01    0.00    0.24    0.04    0.00    0.00      -4.78    2.64    0.40
#  44   -1.42   -0.20    0.02    0.26   -0.05    0.00    0.00      -1.39    1.58   -0.28
#  45   -0.96   -0.31    0.05    0.53   -0.07    0.00    0.00      -0.76    2.06   -0.28
#  46   -0.79   -0.44    0.10    0.91   -0.12    0.00    0.00      -0.34    2.06   -0.28
#  47   -1.56   -1.15    2.24    0.77   -0.12    0.00    0.00       0.20    1.86   -0.28
#  48  -18.18   -0.06    0.01    2.69    0.18    0.00    0.00     -15.37    9.02    0.60
#  49   -5.13    0.00    0.00    0.26    0.04    0.00    0.00      -4.83    4.13    0.60
#  50   -4.33   -0.53    0.26    0.14   -0.08    0.00    0.00      -4.55    0.45   -0.27
#  51   -4.19   -0.35    0.04    0.28   -0.10    0.00    0.00      -4.33    0.74   -0.28
#  52   -3.71   -0.66    0.47    0.41   -0.10    0.00    0.00      -3.59    1.15   -0.28
#  53   -0.36   -0.18    0.06    0.25   -0.04    0.00    0.00      -0.26    1.91   -0.28
#  54   -0.71   -0.03    0.00    0.10   -0.01    0.00    0.00      -0.65    2.56   -0.26
#  55   -4.61    0.00    0.00    0.43    0.02    0.00    0.00      -4.16    7.38    0.40
#  56   -0.37   -0.10    0.00    0.22   -0.03    0.00    0.00      -0.27    2.38   -0.28
#  57   -4.31   -1.66   10.11    0.95   -0.10    0.00    0.00       4.99    2.65   -0.28
#  58   -5.24   -0.61    0.33    1.20   -0.11    0.00    0.00      -4.43    3.10   -0.28
#  59   -3.63   -0.57    0.33    1.51   -0.10    0.00    0.00      -2.46    4.13   -0.28
#  60  -15.35   -0.06    0.00    5.43    0.24    0.00    0.00      -9.74   13.64    0.60
#  61   -0.28   -0.02    0.00    0.00   -0.01    0.00    0.00      -0.30    0.18   -0.26
#  62   -0.24   -0.07    0.00    0.04   -0.02    0.00    0.00      -0.28    0.60   -0.28
#  63   -0.30   -0.15    0.01    0.16   -0.04    0.00    0.00      -0.32    1.05   -0.28
#  64   -0.27   -0.45    0.23    0.45   -0.07    0.00    0.00      -0.12    1.68   -0.28
#  65   -0.35   -0.31    0.11    0.41   -0.06    0.00    0.00      -0.20    1.94   -0.26

@<TRIPOS>MOLECULE
          T533458        15
   65    72     0     0     0



@<TRIPOS>ATOM
      1 N1          6.4668   -12.0920    92.4422 N.pl3      1          -0.5933
      2 C1          6.3380   -10.8884    91.8148 C.2        1           0.6574
      3 N2          6.5207    -9.8899    92.7252 N.pl3      1          -0.6061
      4 C2          6.7724   -10.4713    93.9650 C.ar       1           0.0794
      5 C3          7.0261    -9.9429    95.2228 C.ar       1          -0.1006
      6 C4          7.2438   -10.7878    96.2929 C.ar       1          -0.0994
      7 C5          7.2102   -12.1606    96.1165 C.ar       1          -0.1014
      8 C6          6.9591   -12.6962    94.8690 C.ar       1          -0.0967
      9 C7          6.7385   -11.8555    93.7872 C.ar       1           0.0827
     10 N3          6.0781   -10.7169    90.5290 N.2        1          -0.6191
     11 C8          5.9739    -9.4732    90.0232 C.2        1           0.6135
     12 N4          4.8920    -9.0280    89.4551 N.2        1          -0.6616
     13 C9          5.0866    -7.6426    89.0090 C.3        1           0.3370
     14 N5          4.2756    -6.7378    89.8338 N.2        1          -0.5887
     15 C10         5.0429    -6.0146    90.5947 C.2        1           0.5825
     16 N6          6.3837    -6.2696    90.4402 N.pl3      1          -0.7287
     17 C11         6.5453    -7.3181    89.4211 C.3        1           0.3924
     18 N7          6.9988    -8.5598    90.0662 N.pl3      1          -0.7246
     19 C12         7.4079    -6.8855    88.2636 C.ar       1          -0.0914
     20 C13         7.4948    -5.5472    87.9284 C.ar       1          -0.0843
     21 C14         8.2859    -5.1505    86.8665 C.ar       1          -0.1114
     22 C15         8.9909    -6.0920    86.1402 C.ar       1          -0.0995
     23 C16         8.9049    -7.4302    86.4760 C.ar       1          -0.1149
     24 C17         8.1170    -7.8264    87.5405 C.ar       1          -0.0932
     25 N8          4.5657    -5.0970    91.4571 N.pl3      1          -0.5742
     26 H1          5.0944    -4.3127    91.6727 H          1           0.4545
     27 C18         3.3756    -5.2649    92.0103 C.cat      1           0.6580
     28 N9          2.5444    -6.3234    91.7925 N.pl3      1          -0.5247
     29 C19         1.3930    -6.1370    92.5529 C.ar       1           0.0770
     30 C20         0.2358    -6.8854    92.7151 C.ar       1          -0.0797
     31 C21        -0.7616    -6.4365    93.5579 C.ar       1          -0.0779
     32 C22        -0.6122    -5.2421    94.2418 C.ar       1          -0.0765
     33 C23         0.5351    -4.4898    94.0868 C.ar       1          -0.0851
     34 C24         1.5437    -4.9328    93.2428 C.ar       1           0.0806
     35 N10         2.7862    -4.4104    92.8941 N.pl3      1          -0.5638
     36 C25         4.8454    -7.4710    87.5313 C.ar       1          -0.0552
     37 C26         5.0943    -8.5184    86.6643 C.ar       1          -0.0804
     38 C27         4.8732    -8.3612    85.3089 C.ar       1          -0.1167
     39 C28         4.4026    -7.1566    84.8206 C.ar       1          -0.1057
     40 C29         4.1529    -6.1094    85.6877 C.ar       1          -0.1199
     41 C30         4.3700    -6.2682    87.0437 C.ar       1          -0.0949
     42 H2          6.3799   -12.9631    92.0245 H          1           0.4460
     43 H3          6.4823    -8.9384    92.5408 H          1           0.4528
     44 H4          7.0535    -8.8726    95.3643 H          1           0.1333
     45 H5          7.4416   -10.3761    97.2715 H          1           0.1393
     46 H6          7.3815   -12.8153    96.9582 H          1           0.1406
     47 H7          6.9340   -13.7676    94.7353 H          1           0.1371
     48 H8          7.1029    -5.8318    90.9217 H          1           0.4231
     49 H9          7.8749    -8.7092    90.4549 H          1           0.4221
     50 H10         6.9440    -4.8117    88.4959 H          1           0.1226
     51 H11         8.3531    -4.1050    86.6042 H          1           0.1292
     52 H12         9.6085    -5.7822    85.3103 H          1           0.1285
     53 H13         9.4554    -8.1658    85.9084 H          1           0.1269
     54 H14         8.0527    -8.8716    87.8052 H          1           0.1140
     55 H15         2.7239    -7.0766    91.2082 H          1           0.4707
     56 H16         0.1153    -7.8174    92.1828 H          1           0.1508
     57 H17        -1.6619    -7.0194    93.6838 H          1           0.1552
     58 H18        -1.3967    -4.8971    94.8991 H          1           0.1552
     59 H19         0.6476    -3.5582    94.6216 H          1           0.1502
     60 H20         3.1662    -3.5801    93.2218 H          1           0.4581
     61 H21         5.4619    -9.4595    87.0458 H          1           0.1177
     62 H22         5.0682    -9.1793    84.6314 H          1           0.1248
     63 H23         4.2305    -7.0334    83.7615 H          1           0.1248
     64 H24         3.7856    -5.1682    85.3061 H          1           0.1224
     65 H25         4.1713    -5.4512    87.7216 H          1           0.1088
@<TRIPOS>BOND
     1    1    9 1
     2    1    2 1
     3    1   42 1
     4    2    3 1
     5    2   10 2
     6    3    4 1
     7    3   43 1
     8    4    9 ar
     9    4    5 ar
    10    5    6 ar
    11    5   44 1
    12    6    7 ar
    13    6   45 1
    14    7    8 ar
    15    7   46 1
    16    8    9 ar
    17    8   47 1
    18   10   11 1
    19   11   18 1
    20   11   12 2
    21   12   13 1
    22   13   17 1
    23   13   14 1
    24   13   36 1
    25   14   15 2
    26   15   16 1
    27   15   25 1
    28   16   17 1
    29   16   48 1
    30   17   18 1
    31   17   19 1
    32   18   49 1
    33   19   24 ar
    34   19   20 ar
    35   20   21 ar
    36   20   50 1
    37   21   22 ar
    38   21   51 1
    39   22   23 ar
    40   22   52 1
    41   23   24 ar
    42   23   53 1
    43   24   54 1
    44   25   26 1
    45   25   27 2
    46   27   35 1
    47   27   28 1
    48   28   29 1
    49   28   55 1
    50   29   34 ar
    51   29   30 ar
    52   30   31 ar
    53   30   56 1
    54   31   32 ar
    55   31   57 1
    56   32   33 ar
    57   32   58 1
    58   33   34 ar
    59   33   59 1
    60   34   35 1
    61   35   60 1
    62   36   41 ar
    63   36   37 ar
    64   37   38 ar
    65   37   61 1
    66   38   39 ar
    67   38   62 1
    68   39   40 ar
    69   39   63 1
    70   40   41 ar
    71   40   64 1
    72   41   65 1
##########                 Name:              T535286
##########          Protonation:                   43
##########               SMILES:   c1cc(ccc1CCNc2[nH+]c(nc(n2)N3CC[NH2+]CC3)NCc4ccc5cc(ccc5c4)Cl)O
##########            Long Name:   hylamino]-4-piperazin-4-ium-1-yl-1,3,5-triazin-1-ium-2-yl]amino]ethyl]phenol
##########          FlexRecCode: 1
##########               Number:                  194
##########   Ligand Source File: /raidb/db2/rgc/tcams/tcams-0001360.db2.gz
##########           GlobalRank: 214
##########                 Rank:                    1
##########               Setnum:                  304
##########             Matchnum:                 3745
##########                Cloud:                    1
##########        Electrostatic:           -49.466194
##########        Van der Waals:           -24.345869
##########  Ligand Polar Desolv:            11.104444
########## Ligand Apolar Desolv:            -3.376765
##########      Internal Energy:             0.000000
##########      Receptor Energy: 0.0
########## Receptor Desolvation:             0.000000
########## Receptor Hydrophobic:             0.000000
##########         Total Energy: -66.08
##########        Ligand Charge:             2.000000
##########            Arbitrary:    +999.9990
##########     heavy atom count:   35
##########           pose count:    1
##########        Ligand Energy:             0.000000
# num electro vdwattr vdwrepu polsolv apolsol rdesolv rhydroe totalscore fullpol fullapo
#   1    3.75   -0.32    0.03   -0.76    0.15    0.00    0.00       2.84   -6.20    1.19
#   2   -1.18   -0.31    0.02    0.05   -0.04    0.00    0.00      -1.47    0.38   -0.31
#   3    2.36   -0.74    0.09   -0.66   -0.10    0.00    0.00       0.96   -3.08   -0.46
#   4    1.86   -0.81    0.10   -0.47   -0.11    0.00    0.00       0.58   -1.98   -0.45
#   5    1.73   -0.47    0.02   -0.33   -0.07    0.00    0.00       0.88   -1.72   -0.36
#   6    1.87   -0.69    0.07   -0.87   -0.08    0.00    0.00       0.30   -2.55   -0.23
#   7   -1.94   -0.91    0.16    1.26   -0.14    0.00    0.00      -1.57    3.42   -0.37
#   8   18.19   -2.01    0.74   -8.81    0.66    0.00    0.00       8.77  -23.19    1.74
#   9  -15.12   -1.43    0.41    7.06   -1.37    0.00    0.00     -10.46   24.70   -4.81
#  10   24.09   -3.51    2.86   -7.89    0.34    0.00    0.00      15.89  -22.88    0.99
#  11  -25.52   -0.22    0.07    7.96    0.16    0.00    0.00     -17.56   18.10    0.36
#  12  -20.57   -1.56    0.58    6.87   -1.33    0.00    0.00     -16.01   24.82   -4.81
#  13   25.51   -2.90    2.73   -6.95    0.53    0.00    0.00      18.91  -23.01    1.74
#  14   -3.05   -0.46    0.04    1.05   -0.08    0.00    0.00      -2.51    4.82   -0.39
#  15    2.32   -0.58    0.04   -0.47   -0.07    0.00    0.00       1.24   -2.33   -0.37
#  16    0.94   -0.58    0.07   -0.30   -0.08    0.00    0.00       0.04   -1.69   -0.45
#  17    0.40   -1.06    0.32   -0.66   -0.10    0.00    0.00      -1.09   -3.08   -0.46
#  18    0.16   -1.17    0.27   -0.30   -0.11    0.00    0.00      -1.15   -1.13   -0.40
#  19    0.52   -1.27    0.20   -0.52   -0.14    0.00    0.00      -1.21   -1.67   -0.45
#  20    0.11   -1.28    0.13   -0.28   -0.11    0.00    0.00      -1.42   -0.79   -0.30
#  21    0.37   -2.73    0.54   -0.56   -0.47    0.00    0.00      -2.84   -1.19   -0.99
#  22    1.14   -1.33    0.13   -0.91   -0.18    0.00    0.00      -1.15   -2.32   -0.45
#  23    1.25   -1.07    0.07   -0.43   -0.17    0.00    0.00      -0.35   -1.15   -0.46
#  24    0.77   -0.90    0.09   -0.49   -0.11    0.00    0.00      -0.64   -1.70   -0.40
#  25    1.16   -0.72    0.04   -0.39   -0.11    0.00    0.00       0.00   -1.60   -0.44
#  26    8.56   -0.41    0.02   -3.61    0.30    0.00    0.00       4.86  -22.08    1.84
#  27   -5.51   -0.29    0.01    2.69   -0.55    0.00    0.00      -3.65   22.95   -4.68
#  28    5.83   -0.49    0.02   -4.02    0.33    0.00    0.00       1.68  -22.13    1.84
#  29    2.03   -0.14    0.00   -1.24    0.10    0.00    0.00       0.76  -20.95    1.71
#  30   -0.15   -0.06    0.00    0.15   -0.02    0.00    0.00      -0.09    2.97   -0.48
#  31    0.02   -0.05    0.00    0.01   -0.02    0.00    0.00      -0.04    0.36   -0.48
#  32    0.52   -0.06    0.00   -0.87    0.03    0.00    0.00      -0.37  -22.90    0.89
#  33   -0.38    0.00    0.00    0.41    0.01    0.00    0.00       0.04   22.58    0.56
#  34   -0.40    0.00    0.00    0.48    0.01    0.00    0.00       0.08   23.38    0.57
#  35    0.03   -0.10    0.00    0.02   -0.03    0.00    0.00      -0.07    0.36   -0.48
#  36   -0.19   -0.12    0.00    0.22   -0.04    0.00    0.00      -0.11    2.93   -0.48
#  37    0.61   -0.29    0.01   -0.22   -0.05    0.00    0.00       0.06   -2.02   -0.45
#  38    0.83   -0.16    0.00   -0.20   -0.03    0.00    0.00       0.44   -3.06   -0.46
#  39   -3.79   -0.01    0.00    0.80    0.15    0.00    0.00      -2.84    6.42    1.22
#  40   -2.78   -0.36    0.16    0.40   -0.07    0.00    0.00      -2.65    1.60   -0.28
#  41   -3.55   -0.42    0.27    1.19   -0.07    0.00    0.00      -2.59    4.50   -0.28
#  42   -2.81   -0.29    0.04    0.94   -0.08    0.00    0.00      -2.20    3.24   -0.28
#  43   -1.82   -0.26    0.04    0.89   -0.07    0.00    0.00      -1.22    3.43   -0.28
#  44   -2.76   -0.46    0.21    1.59   -0.10    0.00    0.00      -1.51    4.67   -0.28
#  45   -0.96   -0.31    0.11    0.84   -0.05    0.00    0.00      -0.36    4.40   -0.27
#  46  -19.39   -0.07    0.01    6.56    0.24    0.00    0.00     -12.66   16.12    0.58
#  47  -28.14   -0.21    0.07    5.59    0.21    0.00    0.00     -22.47   15.12    0.58
#  48   -2.41   -0.14    0.01    0.85   -0.04    0.00    0.00      -1.73    5.91   -0.27
#  49   -1.39   -0.07    0.00    0.38   -0.02    0.00    0.00      -1.10    5.47   -0.27
#  50   -0.91   -0.06    0.00    0.34   -0.02    0.00    0.00      -0.65    5.09   -0.28
#  51   -0.36   -0.20    0.06    0.29   -0.04    0.00    0.00      -0.24    2.17   -0.28
#  52   -0.67   -0.21    0.02    0.28   -0.06    0.00    0.00      -0.65    1.37   -0.28
#  53   -1.98   -0.29    0.03    0.51   -0.09    0.00    0.00      -1.82    1.58   -0.28
#  54   -2.51   -0.24    0.03    0.89   -0.06    0.00    0.00      -1.89    4.16   -0.28
#  55   -3.53   -0.15    0.01    0.76   -0.04    0.00    0.00      -2.94    5.91   -0.28
#  56   -0.09   -0.02    0.00    0.13   -0.01    0.00    0.00       0.01    5.23   -0.28
#  57   -0.40   -0.02    0.00    0.13   -0.01    0.00    0.00      -0.30    4.21   -0.24
#  58   -0.13   -0.01    0.00    0.19   -0.01    0.00    0.00       0.04    8.42   -0.28
#  59   -0.17   -0.02    0.00    0.17   -0.01    0.00    0.00      -0.03    5.80   -0.28
#  60   -0.23   -0.03    0.00    0.29   -0.01    0.00    0.00       0.02    8.27   -0.28
#  61   -0.23   -0.04    0.00    0.22   -0.01    0.00    0.00      -0.06    5.76   -0.28
#  62   -0.39   -0.07    0.01    0.30   -0.02    0.00    0.00      -0.18    3.99   -0.24
#  63   -0.19   -0.02    0.00    0.15   -0.01    0.00    0.00      -0.08    5.16   -0.28
#  64   -0.39   -0.09    0.01    0.35   -0.02    0.00    0.00      -0.13    4.26   -0.28
#  65   -0.41   -0.02    0.00    0.04   -0.01    0.00    0.00      -0.39    1.51   -0.28

@<TRIPOS>MOLECULE
          T535286        43
   65    69     0     0     0



@<TRIPOS>ATOM
      1 O1          8.5294    -9.8636    90.6741 O.3        1          -0.4957
      2 C1          8.7651    -8.8883    89.7573 C.ar       1           0.1246
      3 C2          8.8945    -7.5685    90.1647 C.ar       1          -0.1431
      4 C3          9.1345    -6.5792    89.2308 C.ar       1          -0.0928
      5 C4          9.2451    -6.9033    87.8913 C.ar       1          -0.1185
      6 C5          9.5064    -5.8221    86.8747 C.3        1          -0.0828
      7 C6          8.1743    -5.2666    86.3670 C.3        1           0.0862
      8 N1          7.4180    -4.7081    87.4904 N.pl3      1          -0.6479
      9 C7          6.5483    -5.5087    88.2029 C.ar       1           0.6998
     10 N2          6.1655    -5.1516    89.4248 N.ar       1          -0.6326
     11 H1          6.4973    -4.3282    89.8157 H          1           0.4423
     12 C8          5.3275    -5.9224    90.1107 C.ar       1           0.6983
     13 N3          4.9298    -5.5514    91.3791 N.pl3      1          -0.6436
     14 C9          4.0062    -6.4010    92.1350 C.3        1           0.1333
     15 C10         4.7916    -7.3989    92.9465 C.ar       1          -0.1325
     16 C11         5.1165    -8.6339    92.3881 C.ar       1          -0.1051
     17 C12         5.8246    -9.5574    93.0937 C.ar       1          -0.0862
     18 C13         6.2363    -9.2645    94.4051 C.ar       1          -0.0261
     19 C14         6.9693   -10.1926    95.1641 C.ar       1          -0.1020
     20 C15         7.3518    -9.8738    96.4319 C.ar       1          -0.0145
     21 Cl1         8.2571   -11.0229    97.3667 Cl         1          -0.0461
     22 C16         7.0270    -8.6373    96.9899 C.ar       1          -0.1006
     23 C17         6.3181    -7.7150    96.2841 C.ar       1          -0.0890
     24 C18         5.9063    -8.0085    94.9728 C.ar       1          -0.0608
     25 C19         5.1779    -7.0785    94.2115 C.ar       1          -0.0588
     26 N4          4.8723    -7.0507    89.5747 N.ar       1          -0.6235
     27 C20         5.2553    -7.4081    88.3530 C.ar       1           0.6924
     28 N5          6.0893    -6.6343    87.6649 N.ar       1          -0.6239
     29 N6          4.7831    -8.5794    87.7968 N.pl3      1          -0.5675
     30 C21         3.8503    -9.4451    88.5348 C.3        1           0.0918
     31 C22         2.6589    -9.7623    87.6251 C.3        1          -0.0216
     32 N7          3.1461   -10.3335    86.3632 N.4        1          -0.5089
     33 H2          3.7185   -11.1408    86.5597 H          1           0.4335
     34 H3          2.3598   -10.6104    85.7948 H          1           0.4428
     35 C23         3.9428    -9.3359    85.6375 C.3        1          -0.0215
     36 C24         5.1934    -8.9948    86.4464 C.3        1           0.0911
     37 C25         9.1169    -8.2181    87.4829 C.ar       1          -0.0924
     38 C26         8.8822    -9.2118    88.4133 C.ar       1          -0.1427
     39 H4          8.4637    -9.5410    91.5833 H          1           0.3984
     40 H5          8.8075    -7.3146    91.2108 H          1           0.1354
     41 H6          9.2353    -5.5516    89.5473 H          1           0.1280
     42 H7         10.0818    -5.0200    87.3371 H          1           0.0942
     43 H8         10.0691    -6.2375    86.0387 H          1           0.0938
     44 H9          8.3634    -4.4844    85.6316 H          1           0.0934
     45 H10         7.5989    -6.0685    85.9044 H          1           0.0936
     46 H11         7.5283    -3.7755    87.7336 H          1           0.4470
     47 H12         5.2617    -4.7280    91.7701 H          1           0.4470
     48 H13         3.4065    -5.7818    92.8021 H          1           0.0989
     49 H14         3.3508    -6.9305    91.4435 H          1           0.1004
     50 H15         4.8013    -8.8614    91.3805 H          1           0.1289
     51 H16         6.0684   -10.5106    92.6482 H          1           0.1401
     52 H17         7.2277   -11.1537    94.7446 H          1           0.1463
     53 H18         7.3424    -8.4089    97.9973 H          1           0.1432
     54 H19         6.0733    -6.7620    96.7293 H          1           0.1413
     55 H20         4.9227    -6.1160    94.6296 H          1           0.1334
     56 H21         4.3535   -10.3704    88.8154 H          1           0.1134
     57 H22         3.5012    -8.9288    89.4291 H          1           0.1481
     58 H23         2.0046   -10.4800    88.1201 H          1           0.1584
     59 H24         2.1047    -8.8465    87.4195 H          1           0.1387
     60 H25         4.2344    -9.7394    84.6678 H          1           0.1587
     61 H26         3.3497    -8.4331    85.4920 H          1           0.1386
     62 H27         5.7319    -8.1810    85.9606 H          1           0.1483
     63 H28         5.8345    -9.8738    86.5127 H          1           0.1131
     64 H29         9.2040    -8.4689    86.4360 H          1           0.1284
     65 H30         8.7858   -10.2392    88.0943 H          1           0.1356
@<TRIPOS>BOND
     1    1    2 1
     2    1   39 1
     3    2   38 ar
     4    2    3 ar
     5    3    4 ar
     6    3   40 1
     7    4    5 ar
     8    4   41 1
     9    5    6 1
    10    5   37 ar
    11    6    7 1
    12    6   42 1
    13    6   43 1
    14    7    8 1
    15    7   44 1
    16    7   45 1
    17    8    9 1
    18    8   46 1
    19    9   28 ar
    20    9   10 ar
    21   10   11 1
    22   10   12 ar
    23   12   13 1
    24   12   26 ar
    25   13   14 1
    26   13   47 1
    27   14   15 1
    28   14   48 1
    29   14   49 1
    30   15   25 ar
    31   15   16 ar
    32   16   17 ar
    33   16   50 1
    34   17   18 ar
    35   17   51 1
    36   18   24 ar
    37   18   19 ar
    38   19   20 ar
    39   19   52 1
    40   20   21 1
    41   20   22 ar
    42   22   23 ar
    43   22   53 1
    44   23   24 ar
    45   23   54 1
    46   24   25 ar
    47   25   55 1
    48   26   27 ar
    49   27   28 ar
    50   27   29 1
    51   29   36 1
    52   29   30 1
    53   30   31 1
    54   30   56 1
    55   30   57 1
    56   31   32 1
    57   31   58 1
    58   31   59 1
    59   32   33 1
    60   32   34 1
    61   32   35 1
    62   35   36 1
    63   35   60 1
    64   35   61 1
    65   36   62 1
    66   36   63 1
    67   37   38 ar
    68   37   64 1
    69   38   65 1
##########                 Name:              T538005
##########          Protonation:                   87
##########               SMILES:   CCCCNc1ccc(cc1)C(=O)N[C@H]2CC[NH+](CC2)C[C@H](O)c3c4c(ncc3)ccc(c4)OC
##########            Long Name:   [(2R)-2-hydroxy-2-(6-methoxy-4-quinolyl)ethyl]piperidin-1-ium-4-yl]benzamide
##########          FlexRecCode: 1
##########               Number:                  170
##########   Ligand Source File: /raidb/db2/rgc/tcams/tcams-0001710.db2.gz
##########           GlobalRank: 214
##########                 Rank:                    1
##########               Setnum:                  321
##########             Matchnum:                 3136
##########                Cloud:                    1
##########        Electrostatic:           -42.296806
##########        Van der Waals:           -30.384069
##########  Ligand Polar Desolv:             8.619736
########## Ligand Apolar Desolv:            -2.018210
##########      Internal Energy:             0.000000
##########      Receptor Energy: 0.0
########## Receptor Desolvation:             0.000000
########## Receptor Hydrophobic:             0.000000
##########         Total Energy: -66.08
##########        Ligand Charge:             1.000000
##########            Arbitrary:    +999.9990
##########     heavy atom count:   35
##########           pose count:    1
##########        Ligand Energy:             0.000000
# num electro vdwattr vdwrepu polsolv apolsol rdesolv rhydroe totalscore fullpol fullapo
#   1    0.45   -0.30    0.01   -0.20   -0.03    0.00    0.00      -0.07   -1.09   -0.19
#   2    2.18   -0.64    0.07   -0.29   -0.08    0.00    0.00       1.25   -0.94   -0.25
#   3    2.08   -0.44    0.03   -0.25   -0.05    0.00    0.00       1.36   -1.03   -0.22
#   4   -2.36   -0.80    0.12    0.37   -0.13    0.00    0.00      -2.80    1.06   -0.37
#   5    4.61   -0.93    0.10   -1.87    0.45    0.00    0.00       2.35   -7.11    1.70
#   6   -1.98   -1.06    0.23    0.50   -0.18    0.00    0.00      -2.49    1.97   -0.72
#   7    0.68   -1.20    0.37   -0.40   -0.11    0.00    0.00      -0.67   -1.62   -0.44
#   8    0.00   -1.31    0.36   -0.12   -0.13    0.00    0.00      -1.20   -0.43   -0.46
#   9    4.29   -1.60    0.41   -0.76   -0.13    0.00    0.00       2.20   -2.46   -0.41
#  10    1.22   -2.85    2.32   -0.02   -0.14    0.00    0.00       0.53   -0.05   -0.44
#  11    5.45   -1.61    0.49   -0.80   -0.13    0.00    0.00       3.40   -2.79   -0.46
#  12  -12.22   -1.74    0.68    2.00   -0.20    0.00    0.00     -11.49    6.48   -0.65
#  13    5.24   -0.90    0.22   -0.76    0.09    0.00    0.00       3.89   -3.25    0.38
#  14   27.05   -3.19    2.04   -5.00    0.64    0.00    0.00      21.55  -13.64    1.74
#  15   -3.70   -1.30    0.57    0.94   -0.10    0.00    0.00      -3.58    2.58   -0.28
#  16    5.53   -1.98    0.76   -1.81   -0.11    0.00    0.00       2.39   -3.70   -0.23
#  17    0.28   -1.37    0.31    0.22   -0.18    0.00    0.00      -0.72    0.48   -0.38
#  18    9.80   -0.84    0.05   -4.11    0.09    0.00    0.00       4.99  -11.86    0.27
#  19  -10.39   -0.02    0.00    3.65    0.11    0.00    0.00      -6.65   16.25    0.49
#  20    0.99   -0.70    0.05   -0.37   -0.12    0.00    0.00      -0.15   -0.99   -0.32
#  21   -1.44   -0.84    0.10    1.50   -0.04    0.00    0.00      -0.71    4.18   -0.10
#  22    5.82   -1.99    0.56   -7.24    0.73    0.00    0.00      -2.13  -15.77    1.58
#  23    0.96   -1.42    0.17   -0.41   -0.14    0.00    0.00      -0.83   -1.02   -0.35
#  24    0.38   -1.21    0.12   -0.37   -0.13    0.00    0.00      -1.21   -1.10   -0.40
#  25    1.19   -1.15    0.19   -0.65   -0.12    0.00    0.00      -0.53   -2.28   -0.43
#  26   -1.09   -1.08    0.26    0.35   -0.08    0.00    0.00      -1.64    1.37   -0.31
#  27    1.87   -0.54    0.05   -0.92    0.19    0.00    0.00       0.64   -4.55    0.93
#  28   -0.12   -0.31    0.02    0.03    0.01    0.00    0.00      -0.38    0.14    0.03
#  29    1.45   -1.49    0.88   -0.56   -0.13    0.00    0.00       0.16   -1.86   -0.43
#  30    0.31   -1.51    0.53   -0.36   -0.17    0.00    0.00      -1.20   -0.99   -0.46
#  31   -0.96   -1.32    0.18    0.09   -0.27    0.00    0.00      -2.27    0.25   -0.73
#  32    5.40   -1.56    0.23   -1.96    0.91    0.00    0.00       3.00   -4.31    2.00
#  33   -1.82   -2.49    1.20    0.60   -0.53    0.00    0.00      -3.03    1.10   -0.97
#  34    1.68   -2.23    0.64   -1.43   -0.23    0.00    0.00      -1.57   -2.78   -0.44
#  35    0.35   -0.42    0.01   -0.17   -0.08    0.00    0.00      -0.31   -0.74   -0.36
#  36    3.09   -0.44    0.01   -0.92   -0.06    0.00    0.00       1.68   -3.66   -0.23
#  37   -0.13   -0.10    0.00    0.04   -0.03    0.00    0.00      -0.22    0.39   -0.28
#  38   -0.35   -0.06    0.00    0.02   -0.01    0.00    0.00      -0.41    0.38   -0.28
#  39   -0.13   -0.06    0.00    0.02   -0.02    0.00    0.00      -0.19    0.27   -0.28
#  40   -1.70   -0.25    0.03    0.12   -0.07    0.00    0.00      -1.87    0.47   -0.28
#  41   -1.51   -0.39    0.12    0.13   -0.09    0.00    0.00      -1.73    0.44   -0.28
#  42   -0.65   -0.16    0.04    0.09   -0.04    0.00    0.00      -0.72    0.68   -0.28
#  43   -1.09   -0.08    0.00    0.05   -0.02    0.00    0.00      -1.13    0.73   -0.28
#  44   -1.99   -0.27    0.03    0.12   -0.08    0.00    0.00      -2.19    0.40   -0.27
#  45   -1.80   -0.60    0.58    0.10   -0.08    0.00    0.00      -1.80    0.35   -0.27
#  46   -1.66   -0.02    0.00    0.84    0.10    0.00    0.00      -0.75    4.93    0.57
#  47   -0.34   -0.18    0.03    0.08   -0.03    0.00    0.00      -0.45    0.52   -0.23
#  48   -0.30   -0.21    0.04    0.03   -0.05    0.00    0.00      -0.50    0.14   -0.27
#  49   -5.89   -1.51    4.24    1.46   -0.07    0.00    0.00      -1.77    4.84   -0.22
#  50   -3.81   -0.28    0.05    0.63   -0.06    0.00    0.00      -3.47    2.72   -0.28
#  51  -23.15   -0.15    0.03    4.39    0.14    0.00    0.00     -18.74   10.88    0.34
#  52   -2.42   -0.62    0.54    0.09   -0.08    0.00    0.00      -2.49    0.29   -0.26
#  53   -4.88   -1.39    1.90    0.34   -0.16    0.00    0.00      -4.20    0.60   -0.28
#  54   -3.11   -0.85    0.74    1.43   -0.12    0.00    0.00      -1.91    3.45   -0.28
#  55   -6.71   -1.03    2.85    1.50   -0.10    0.00    0.00      -3.49    4.22   -0.27
#  56   -4.99   -0.60    0.16    2.83   -0.14    0.00    0.00      -2.74    5.79   -0.28
#  57   -3.68   -0.18    0.01    1.11   -0.05    0.00    0.00      -2.80    5.69   -0.28
#  58   -3.21   -0.43    0.22    1.75   -0.08    0.00    0.00      -1.74    6.49   -0.28
#  59   -0.49   -0.36    0.22    1.03   -0.04    0.00    0.00       0.37    4.81   -0.18
#  60   -5.52   -0.03    0.00    4.47    0.35    0.00    0.00      -0.74   12.93    1.00
#  61   -0.76   -0.21    0.04    0.88   -0.03    0.00    0.00      -0.07    5.71   -0.22
#  62   -0.29   -0.05    0.00    0.04   -0.01    0.00    0.00      -0.31    0.93   -0.27
#  63   -0.37   -0.12    0.02    0.07   -0.03    0.00    0.00      -0.44    0.66   -0.27
#  64   -0.88   -0.13    0.01    0.26   -0.04    0.00    0.00      -0.77    2.03   -0.28
#  65   -1.18   -0.22    0.05    0.31   -0.04    0.00    0.00      -1.09    1.56   -0.22
#  66   -1.49   -0.29    0.04    0.13   -0.08    0.00    0.00      -1.69    0.46   -0.28
#  67   -3.80   -0.78    0.55    1.18   -0.15    0.00    0.00      -3.01    2.26   -0.28
#  68   -1.99   -0.54    0.12    2.52   -0.10    0.00    0.00       0.01    5.40   -0.22
#  69   -2.88   -0.11    0.01    0.59   -0.02    0.00    0.00      -2.42    5.44   -0.22
#  70   -1.26   -0.16    0.02    0.81   -0.03    0.00    0.00      -0.62    5.95   -0.22
#  71   -2.38   -0.13    0.00    0.47   -0.03    0.00    0.00      -2.08    3.83   -0.28
#  72   -1.77   -0.09    0.00    0.20   -0.02    0.00    0.00      -1.68    2.58   -0.28

@<TRIPOS>MOLECULE
          T538005        87
   72    75     0     0     0



@<TRIPOS>ATOM
      1 C1         11.3090    -7.2930    87.6171 C.3        1          -0.1549
      2 C2         10.4325    -6.1505    87.1001 C.3        1          -0.1220
      3 C3          8.9785    -6.6197    87.0190 C.3        1          -0.1324
      4 C4          8.1020    -5.4773    86.5020 C.3        1           0.1150
      5 N1          6.7098    -5.9265    86.4243 N.pl3      1          -0.7336
      6 C5          5.8654    -5.7688    87.5176 C.ar       1           0.2546
      7 C6          4.4855    -5.7994    87.3407 C.ar       1          -0.2076
      8 C7          3.6479    -5.6432    88.4212 C.ar       1           0.0001
      9 C8          4.1844    -5.4533    89.6981 C.ar       1          -0.2179
     10 C9          5.5711    -5.4227    89.8728 C.ar       1          -0.0343
     11 C10         6.4035    -5.5853    88.7893 C.ar       1          -0.2078
     12 C11         3.2893    -5.2851    90.8585 C.2        1           0.5729
     13 O1          2.1763    -5.7744    90.8438 O.2        1          -0.5284
     14 N2          3.7052    -4.5891    91.9350 N.am       1          -0.7404
     15 C12         2.8163    -4.4221    93.0875 C.3        1           0.1340
     16 C13         3.5276    -3.6029    94.1684 C.3        1          -0.1567
     17 C14         4.7577    -4.3713    94.6561 C.3        1          -0.0073
     18 N3          4.3424    -5.6640    95.2138 N.4        1          -0.3772
     19 H1          3.6762    -5.5106    95.9559 H          1           0.4284
     20 C15         5.5172    -6.3649    95.7492 C.3        1          -0.0450
     21 C16         5.0857    -7.7126    96.3308 C.3        1           0.1348
     22 O2          4.1400    -7.4977    97.3802 O.3        1          -0.5421
     23 C17         6.2909    -8.4316    96.8801 C.ar       1          -0.0963
     24 C18         7.0485    -9.2979    96.0690 C.ar       1          -0.0445
     25 C19         6.7100    -9.5220    94.7254 C.ar       1          -0.1798
     26 C20         7.4703   -10.3696    93.9707 C.ar       1           0.1586
     27 O3          7.1433   -10.5872    92.6698 O.3        1          -0.3135
     28 C21         7.9766   -11.4841    91.9326 C.3        1           0.0202
     29 C22         8.5814   -11.0156    94.5216 C.ar       1          -0.1761
     30 C23         8.9340   -10.8184    95.8200 C.ar       1          -0.0340
     31 C24         8.1742    -9.9529    96.6273 C.ar       1           0.0979
     32 N4          8.5000    -9.7407    97.9063 N.ar       1          -0.4417
     33 C25         7.7974    -8.9345    98.6641 C.ar       1           0.1204
     34 C26         6.6818    -8.2565    98.1769 C.ar       1          -0.1325
     35 C27         3.7236    -6.4832    94.1646 C.3        1          -0.0178
     36 C28         2.4537    -5.7962    93.6580 C.3        1          -0.1509
     37 H2         12.3449    -6.9587    87.6749 H          1           0.0551
     38 H3         10.9681    -7.5927    88.6080 H          1           0.0554
     39 H4         11.2386    -8.1416    86.9365 H          1           0.0592
     40 H5         10.5030    -5.3019    87.7807 H          1           0.0658
     41 H6         10.7734    -5.8508    86.1092 H          1           0.0662
     42 H7          8.9081    -7.4682    86.3385 H          1           0.0704
     43 H8          8.6376    -6.9194    88.0099 H          1           0.0699
     44 H9          8.1724    -4.6287    87.1825 H          1           0.0667
     45 H10         8.4429    -5.1775    85.5110 H          1           0.0671
     46 H11         6.3765    -6.3341    85.6096 H          1           0.4039
     47 H12         4.0716    -5.9458    86.3541 H          1           0.1313
     48 H13         2.5770    -5.6670    88.2829 H          1           0.1361
     49 H14         5.9886    -5.2759    90.8581 H          1           0.1157
     50 H15         7.4749    -5.5664    88.9242 H          1           0.1270
     51 H16         4.5930    -4.1985    91.9468 H          1           0.3946
     52 H17         1.9084    -3.9057    92.7757 H          1           0.1199
     53 H18         3.8383    -2.6443    93.7532 H          1           0.1196
     54 H19         2.8481    -3.4353    95.0041 H          1           0.1008
     55 H20         5.4364    -4.5381    93.8196 H          1           0.1273
     56 H21         5.2667    -3.7908    95.4256 H          1           0.1333
     57 H22         6.2385    -6.5287    94.9487 H          1           0.1433
     58 H23         5.9747    -5.7608    96.5326 H          1           0.1402
     59 H24         4.6281    -8.3167    95.5474 H          1           0.1366
     60 H25         3.3370    -7.0385    97.0982 H          1           0.3899
     61 H26         5.8536    -9.0277    94.2910 H          1           0.1292
     62 H27         7.6056   -11.5682    90.9112 H          1           0.0624
     63 H28         8.9975   -11.1024    91.9182 H          1           0.0635
     64 H29         7.9623   -12.4657    92.4063 H          1           0.1089
     65 H30         9.1683   -11.6816    93.9065 H          1           0.1454
     66 H31         9.7951   -11.3250    96.2300 H          1           0.1493
     67 H32         8.0925    -8.7896    99.6928 H          1           0.1692
     68 H33         6.1251    -7.5957    98.8248 H          1           0.1417
     69 H34         4.4245    -6.6051    93.3387 H          1           0.1249
     70 H35         3.4691    -7.4619    94.5712 H          1           0.1372
     71 H36         1.7521    -5.6741    94.4832 H          1           0.1089
     72 H37         1.9968    -6.4051    92.8779 H          1           0.1219
@<TRIPOS>BOND
     1    1    2 1
     2    1   37 1
     3    1   38 1
     4    1   39 1
     5    2    3 1
     6    2   40 1
     7    2   41 1
     8    3    4 1
     9    3   42 1
    10    3   43 1
    11    4    5 1
    12    4   44 1
    13    4   45 1
    14    5    6 1
    15    5   46 1
    16    6   11 ar
    17    6    7 ar
    18    7    8 ar
    19    7   47 1
    20    8    9 ar
    21    8   48 1
    22    9   10 ar
    23    9   12 1
    24   10   11 ar
    25   10   49 1
    26   11   50 1
    27   12   13 2
    28   12   14 am
    29   14   15 1
    30   14   51 1
    31   15   36 1
    32   15   16 1
    33   15   52 1
    34   16   17 1
    35   16   53 1
    36   16   54 1
    37   17   18 1
    38   17   55 1
    39   17   56 1
    40   18   19 1
    41   18   20 1
    42   18   35 1
    43   20   21 1
    44   20   57 1
    45   20   58 1
    46   21   22 1
    47   21   23 1
    48   21   59 1
    49   22   60 1
    50   23   34 ar
    51   23   24 ar
    52   24   31 ar
    53   24   25 ar
    54   25   26 ar
    55   25   61 1
    56   26   27 1
    57   26   29 ar
    58   27   28 1
    59   28   62 1
    60   28   63 1
    61   28   64 1
    62   29   30 ar
    63   29   65 1
    64   30   31 ar
    65   30   66 1
    66   31   32 ar
    67   32   33 ar
    68   33   34 ar
    69   33   67 1
    70   34   68 1
    71   35   36 1
    72   35   69 1
    73   35   70 1
    74   36   71 1
    75   36   72 1
##########                 Name:              T528780
##########          Protonation:                   62
##########               SMILES:   CC[NH+]1CC[C@@H](CC1)[NH2+]Cc2ccc(cc2)c3ccc(cc3)Cl
##########            Long Name:   [4-(4-chlorophenyl)phenyl]methyl-(1-ethylpiperidin-1-ium-4-yl)ammonium
##########          FlexRecCode: 1
##########               Number:                    3
##########   Ligand Source File: /raidb/db2/rgc/tcams/tcams-0000461.db2.gz
##########           GlobalRank: 215
##########                 Rank:                    1
##########               Setnum:                   26
##########             Matchnum:                 2186
##########                Cloud:                    1
##########        Electrostatic:           -56.159519
##########        Van der Waals:           -21.326403
##########  Ligand Polar Desolv:            15.191714
########## Ligand Apolar Desolv:            -3.766551
##########      Internal Energy:             0.000000
##########      Receptor Energy: 0.0
########## Receptor Desolvation:             0.000000
########## Receptor Hydrophobic:             0.000000
##########         Total Energy: -66.06
##########        Ligand Charge:             2.000000
##########            Arbitrary:    +999.9990
##########     heavy atom count:   23
##########           pose count:    1
##########        Ligand Energy:             0.000000
# num electro vdwattr vdwrepu polsolv apolsol rdesolv rhydroe totalscore fullpol fullapo
#   1    5.39   -1.26    0.29   -3.31   -0.08    0.00    0.00       1.02   -7.71   -0.19
#   2    0.28   -0.67    0.07    0.28   -0.13    0.00    0.00      -0.18    0.86   -0.40
#   3    6.99   -0.59    0.03   -4.55    0.07    0.00    0.00       1.95  -17.51    0.27
#   4   -6.61   -0.02    0.00    4.27    0.10    0.00    0.00      -2.25   22.59    0.54
#   5    0.08   -0.29    0.01   -0.11   -0.06    0.00    0.00      -0.38   -0.61   -0.37
#   6    2.33   -0.32    0.01   -1.51   -0.04    0.00    0.00       0.47   -8.34   -0.24
#   7   -0.34   -0.52    0.06    0.56   -0.05    0.00    0.00      -0.30    2.45   -0.23
#   8    5.60   -0.93    0.16   -3.14   -0.07    0.00    0.00       1.63   -9.25   -0.20
#   9    0.05   -0.58    0.03   -0.05   -0.12    0.00    0.00      -0.67   -0.15   -0.38
#  10   19.10   -1.95    2.03   -7.13    0.17    0.00    0.00      12.22  -25.97    0.63
#  11  -16.81   -0.04    0.00    6.59    0.15    0.00    0.00     -10.10   24.41    0.56
#  12  -25.21   -0.20    0.11    7.27    0.16    0.00    0.00     -17.86   24.69    0.56
#  13   -1.08   -0.45    0.06    0.65   -0.08    0.00    0.00      -0.90    3.30   -0.40
#  14    3.39   -0.65    0.06   -0.76   -0.08    0.00    0.00       1.95   -3.40   -0.37
#  15    0.62   -0.64    0.08   -0.61   -0.09    0.00    0.00      -0.63   -3.11   -0.45
#  16    0.52   -1.15    0.29   -1.02   -0.11    0.00    0.00      -1.47   -4.12   -0.44
#  17   -0.17   -1.21    0.27   -0.67   -0.11    0.00    0.00      -1.90   -2.41   -0.41
#  18    1.94   -2.08    1.31   -1.27   -0.13    0.00    0.00      -0.23   -4.14   -0.44
#  19    2.06   -1.58    0.62   -0.84   -0.13    0.00    0.00       0.13   -2.91   -0.45
#  20    0.63   -1.20    0.14   -0.19   -0.14    0.00    0.00      -0.76   -0.58   -0.41
#  21    0.87   -1.42    0.18   -0.70   -0.17    0.00    0.00      -1.24   -1.78   -0.44
#  22    1.14   -2.53    2.13   -0.75   -0.21    0.00    0.00      -0.22   -1.63   -0.46
#  23    0.12   -2.20    1.01   -0.57   -0.16    0.00    0.00      -1.80   -1.06   -0.29
#  24    0.28   -7.46    5.63   -0.70   -0.62    0.00    0.00      -2.86   -1.11   -0.98
#  25    0.82   -1.46    0.12   -0.87   -0.24    0.00    0.00      -1.62   -1.65   -0.46
#  26    0.57   -1.17    0.09   -0.71   -0.18    0.00    0.00      -1.39   -1.76   -0.44
#  27   -2.91   -0.78    0.65    1.10   -0.12    0.00    0.00      -2.04    2.65   -0.28
#  28   -2.20   -0.51    0.28    1.18   -0.08    0.00    0.00      -1.33    3.29   -0.21
#  29   -2.74   -0.32    0.04    0.17   -0.09    0.00    0.00      -2.93    0.55   -0.28
#  30   -3.47   -0.23    0.04    1.30   -0.07    0.00    0.00      -2.43    5.56   -0.28
#  31   -2.93   -0.25    0.07    1.24   -0.06    0.00    0.00      -1.93    5.89   -0.28
#  32   -1.15   -0.10    0.00    0.68   -0.03    0.00    0.00      -0.60    7.41   -0.28
#  33   -0.75   -0.07    0.00    0.38   -0.02    0.00    0.00      -0.45    5.33   -0.22
#  34   -1.22   -0.05    0.00    0.32   -0.01    0.00    0.00      -0.96    6.44   -0.28
#  35   -1.50   -0.17    0.02    1.10   -0.04    0.00    0.00      -0.58    6.92   -0.28
#  36   -2.90   -0.10    0.00    0.98   -0.03    0.00    0.00      -2.04   10.41   -0.28
#  37   -5.39   -0.33    0.08    2.18   -0.06    0.00    0.00      -3.52    7.46   -0.22
#  38   -4.12   -0.61    0.37    2.66   -0.10    0.00    0.00      -1.80    7.53   -0.28
#  39   -3.97   -0.30    0.04    1.73   -0.07    0.00    0.00      -2.58    6.51   -0.28
#  40   -2.91   -0.12    0.00    0.80   -0.03    0.00    0.00      -2.26    7.53   -0.28
#  41   -1.96   -0.06    0.00    0.55   -0.01    0.00    0.00      -1.48    9.82   -0.21
#  42   -3.58   -0.15    0.02    1.33   -0.04    0.00    0.00      -2.42    9.15   -0.28
#  43   -0.57   -0.10    0.01    0.75   -0.03    0.00    0.00       0.06    7.35   -0.28
#  44   -0.08   -0.40    0.21    0.48   -0.05    0.00    0.00       0.16    2.23   -0.22
#  45   -2.75   -0.62    0.46    0.73   -0.06    0.00    0.00      -2.25    2.54   -0.22
#  46   -5.18   -0.62    0.56    2.53   -0.09    0.00    0.00      -2.79    8.27   -0.28
#  47   -1.80   -0.23    0.01    0.80   -0.05    0.00    0.00      -1.28    3.23   -0.22
#  48   -2.26   -0.75    0.93    0.59   -0.12    0.00    0.00      -1.61    1.43   -0.28
#  49   -1.35   -0.34    0.03    0.72   -0.13    0.00    0.00      -1.08    1.53   -0.28
#  50   -1.03   -0.20    0.01    0.75   -0.05    0.00    0.00      -0.51    3.48   -0.22

@<TRIPOS>MOLECULE
          T528780        62
   50    52     0     0     0



@<TRIPOS>ATOM
      1 C1         -0.2173    -4.4859    94.7691 C.3        1          -0.1924
      2 C2          0.1086    -5.7773    94.0161 C.3        1          -0.0119
      3 N1          1.3333    -5.5885    93.2273 N.4        1          -0.3897
      4 H1          1.1940    -4.8391    92.5661 H          1           0.4264
      5 C3          1.6428    -6.8269    92.5028 C.3        1          -0.0075
      6 C4          2.8714    -6.6106    91.6168 C.3        1          -0.1701
      7 C5          4.0640    -6.2188    92.4940 C.3        1           0.0135
      8 C6          3.7028    -4.9683    93.3006 C.3        1          -0.1720
      9 C7          2.4437    -5.2472    94.1246 C.3        1          -0.0020
     10 N2          5.2274    -5.9355    91.6432 N.4        1          -0.5064
     11 H2          4.9286    -5.4315    90.8217 H          1           0.4369
     12 H3          5.8920    -5.3768    92.1571 H          1           0.4296
     13 C8          5.8584    -7.1992    91.2397 C.3        1           0.0461
     14 C9          6.3047    -7.9520    92.4666 C.ar       1          -0.1867
     15 C10         6.0578    -9.3090    92.5702 C.ar       1          -0.0814
     16 C11         6.4643   -10.0035    93.6915 C.ar       1          -0.1125
     17 C12         7.1248    -9.3350    94.7202 C.ar       1           0.0190
     18 C13         7.3712    -7.9679    94.6106 C.ar       1          -0.1132
     19 C14         6.9646    -7.2843    93.4826 C.ar       1          -0.0830
     20 C15         7.5638   -10.0761    95.9285 C.ar       1          -0.0828
     21 C16         7.6289    -9.4284    97.1605 C.ar       1          -0.0845
     22 C17         8.0377   -10.1219    98.2813 C.ar       1          -0.1081
     23 C18         8.3833   -11.4589    98.1830 C.ar       1          -0.0158
     24 Cl1         8.8968   -12.3260    99.5966 Cl         1          -0.0455
     25 C19         8.3202   -12.1068    96.9612 C.ar       1          -0.1084
     26 C20         7.9067   -11.4236    95.8358 C.ar       1          -0.0849
     27 H4         -1.1261    -4.6261    95.3545 H          1           0.0833
     28 H5          0.6086    -4.2350    95.4346 H          1           0.0809
     29 H6         -0.3668    -3.6765    94.0544 H          1           0.1141
     30 H7          0.2580    -6.5867    94.7309 H          1           0.1383
     31 H8         -0.7174    -6.0283    93.3506 H          1           0.1348
     32 H9          1.8467    -7.6241    93.2176 H          1           0.1424
     33 H10         0.7919    -7.1062    91.8815 H          1           0.1530
     34 H11         3.1006    -7.5319    91.0812 H          1           0.1374
     35 H12         2.6684    -5.8137    90.9014 H          1           0.1123
     36 H13         4.2996    -7.0366    93.1751 H          1           0.1573
     37 H14         4.5262    -4.7156    93.9686 H          1           0.1371
     38 H15         3.5170    -4.1373    92.6202 H          1           0.1131
     39 H16         2.1846    -4.3594    94.7013 H          1           0.1515
     40 H17         2.6301    -6.0790    94.8038 H          1           0.1422
     41 H18         5.1404    -7.8027    90.6843 H          1           0.1382
     42 H19         6.7218    -6.9890    90.6084 H          1           0.1421
     43 H20         5.5458    -9.8262    91.7721 H          1           0.1340
     44 H21         6.2704   -11.0629    93.7716 H          1           0.1417
     45 H22         7.8828    -7.4449    95.4049 H          1           0.1412
     46 H23         7.1586    -6.2256    93.3946 H          1           0.1320
     47 H24         7.3602    -8.3853    97.2381 H          1           0.1366
     48 H25         8.0885    -9.6209    99.2367 H          1           0.1440
     49 H26         8.5908   -13.1500    96.8895 H          1           0.1438
     50 H27         7.8535   -11.9310    94.8839 H          1           0.1361
@<TRIPOS>BOND
     1    1    2 1
     2    1   27 1
     3    1   28 1
     4    1   29 1
     5    2    3 1
     6    2   30 1
     7    2   31 1
     8    3    4 1
     9    3    9 1
    10    3    5 1
    11    5    6 1
    12    5   32 1
    13    5   33 1
    14    6    7 1
    15    6   34 1
    16    6   35 1
    17    7    8 1
    18    7   10 1
    19    7   36 1
    20    8    9 1
    21    8   37 1
    22    8   38 1
    23    9   39 1
    24    9   40 1
    25   10   11 1
    26   10   12 1
    27   10   13 1
    28   13   14 1
    29   13   41 1
    30   13   42 1
    31   14   19 ar
    32   14   15 ar
    33   15   16 ar
    34   15   43 1
    35   16   17 ar
    36   16   44 1
    37   17   18 ar
    38   17   20 1
    39   18   19 ar
    40   18   45 1
    41   19   46 1
    42   20   26 ar
    43   20   21 ar
    44   21   22 ar
    45   21   47 1
    46   22   23 ar
    47   22   48 1
    48   23   24 1
    49   23   25 ar
    50   25   26 ar
    51   25   49 1
    52   26   50 1
##########                 Name:              T532187
##########          Protonation:                   22
##########               SMILES:   c1ccc2c(c1)C(=O)N(C2=O)CCCCCCON3C(=[NH2+])NC(=[NH2+])NC34CCCCC4
##########            Long Name:   xoisoindolin-2-yl)hexoxy]-7,9,11-triazaspiro[5.5]undecan-10-ylidene]ammonium
##########          FlexRecCode: 1
##########               Number:                  336
##########   Ligand Source File: /raidb/db2/rgc/tcams/tcams-0000924.db2.gz
##########           GlobalRank: 216
##########                 Rank:                    1
##########               Setnum:                  169
##########             Matchnum:                 3898
##########                Cloud:                    1
##########        Electrostatic:           -70.065239
##########        Van der Waals:           -13.871944
##########  Ligand Polar Desolv:            20.480982
########## Ligand Apolar Desolv:            -2.569583
##########      Internal Energy:             0.000000
##########      Receptor Energy: 0.0
########## Receptor Desolvation:             0.000000
########## Receptor Hydrophobic:             0.000000
##########         Total Energy: -66.03
##########        Ligand Charge:             2.000000
##########            Arbitrary:    +999.9990
##########     heavy atom count:   31
##########           pose count:    1
##########        Ligand Energy:             0.000000
# num electro vdwattr vdwrepu polsolv apolsol rdesolv rhydroe totalscore fullpol fullapo
#   1   14.85   -0.78    0.07   -7.75    0.22    0.00    0.00       6.61  -31.63    0.89
#   2   -7.32   -0.01    0.00    1.63    0.04    0.00    0.00      -5.66   23.79    0.60
#   3  -13.27   -0.02    0.00    5.89    0.14    0.00    0.00      -7.26   24.74    0.60
#   4  -16.84   -0.76    0.08    8.32   -1.00    0.00    0.00     -10.20   37.92   -4.54
#   5   24.33   -2.71    1.72  -10.15    0.37    0.00    0.00      13.56  -31.69    1.15
#   6  -24.95   -1.86    1.03    9.90   -1.21    0.00    0.00     -17.08   35.82   -4.36
#   7   31.17   -5.38   13.46   -9.32    0.28    0.00    0.00      30.21  -29.27    0.89
#   8  -36.21   -0.81    1.83    9.94    0.25    0.00    0.00     -24.99   24.12    0.60
#   9  -16.53   -0.02    0.00    4.19    0.12    0.00    0.00     -12.24   21.32    0.60
#  10    7.66   -0.42    0.02   -3.40    0.11    0.00    0.00       3.96  -21.19    0.68
#  11    0.74   -0.26    0.00   -0.53    0.05    0.00    0.00       0.01   -3.70    0.32
#  12   -0.05   -0.54    0.10    0.22   -0.02    0.00    0.00      -0.30    0.95   -0.11
#  13    0.20   -0.39    0.06   -0.58   -0.04    0.00    0.00      -0.75   -3.27   -0.24
#  14    0.29   -0.25    0.01   -0.38   -0.03    0.00    0.00      -0.36   -2.62   -0.22
#  15    1.27   -0.35    0.01   -0.48   -0.05    0.00    0.00       0.40   -2.31   -0.22
#  16    1.79   -0.58    0.05   -0.54   -0.07    0.00    0.00       0.65   -1.86   -0.24
#  17   -2.92   -1.02    0.37    0.40   -0.17    0.00    0.00      -3.33    1.04   -0.43
#  18   12.46   -0.91    0.04   -1.96    0.62    0.00    0.00      10.26   -5.44    1.73
#  19  -14.16   -1.06    0.07    1.71   -0.24    0.00    0.00     -13.68    4.86   -0.68
#  20   11.49   -1.44    0.19   -1.32    0.16    0.00    0.00       9.08   -3.40    0.42
#  21    3.97   -1.21    0.09   -0.68   -0.17    0.00    0.00       2.01   -1.79   -0.44
#  22    1.50   -2.15    0.43   -0.30   -0.23    0.00    0.00      -0.75   -0.62   -0.48
#  23    3.02   -2.68    1.25   -0.63   -0.24    0.00    0.00       0.72   -1.22   -0.47
#  24    2.07   -1.95    0.95   -0.54   -0.21    0.00    0.00       0.33   -1.21   -0.47
#  25    0.70   -1.24    0.12   -0.25   -0.18    0.00    0.00      -0.85   -0.64   -0.48
#  26    2.72   -1.03    0.06   -0.64   -0.16    0.00    0.00       0.95   -1.78   -0.44
#  27   -8.51   -1.19    0.13    1.88   -0.27    0.00    0.00      -7.97    4.68   -0.68
#  28    3.17   -2.45    1.09   -1.44    0.19    0.00    0.00       0.58   -3.12    0.42
#  29   -4.20   -0.14    0.00    1.47   -0.02    0.00    0.00      -2.89   17.88   -0.27
#  30    0.48   -0.08    0.00   -0.26   -0.01    0.00    0.00       0.14   -4.65   -0.19
#  31    0.29   -0.05    0.00   -0.17   -0.01    0.00    0.00       0.06   -4.00   -0.24
#  32    0.31   -0.08    0.00   -0.22   -0.01    0.00    0.00       0.00   -3.75   -0.25
#  33    0.75   -0.12    0.00   -0.29   -0.02    0.00    0.00       0.33   -3.68   -0.24
#  34    1.51   -0.17    0.00   -0.58   -0.02    0.00    0.00       0.73   -4.98   -0.21
#  35    8.37   -0.28    0.01   -3.73    0.18    0.00    0.00       4.54  -32.36    1.52
#  36  -24.03   -0.11    0.01   10.44    0.23    0.00    0.00     -13.45   26.60    0.59
#  37   -1.26   -0.22    0.04    0.79   -0.05    0.00    0.00      -0.70    4.16   -0.28
#  38   -0.42   -0.26    0.06    0.74   -0.05    0.00    0.00       0.07    3.18   -0.21
#  39   -0.14   -0.28    0.17    0.27   -0.05    0.00    0.00      -0.03    1.56   -0.28
#  40   -0.13   -0.06    0.00    0.15   -0.02    0.00    0.00      -0.06    2.23   -0.28
#  41   -0.15   -0.08    0.00    0.16   -0.02    0.00    0.00      -0.09    1.96   -0.28
#  42   -0.13   -0.05    0.00    0.08   -0.01    0.00    0.00      -0.11    1.62   -0.28
#  43   -1.06   -0.09    0.00    0.10   -0.02    0.00    0.00      -1.07    1.25   -0.28
#  44   -1.02   -0.14    0.01    0.21   -0.04    0.00    0.00      -0.98    1.49   -0.28
#  45   -0.73   -0.36    0.17    0.22   -0.08    0.00    0.00      -0.77    0.82   -0.28
#  46   -0.51   -0.16    0.01    0.14   -0.05    0.00    0.00      -0.58    0.70   -0.28
#  47   -3.13   -0.36    0.13    0.36   -0.08    0.00    0.00      -3.08    1.24   -0.27
#  48   -3.36   -0.76    1.35    0.54   -0.11    0.00    0.00      -2.34    1.35   -0.27
#  49   -6.14   -0.58    0.11    1.09   -0.14    0.00    0.00      -5.65    2.18   -0.28
#  50   -5.49   -0.67    0.20    1.86   -0.16    0.00    0.00      -4.26    3.35   -0.28
#  51   -3.00   -0.39    0.15    1.13   -0.10    0.00    0.00      -2.21    3.31   -0.28
#  52   -1.53   -0.28    0.03    0.62   -0.08    0.00    0.00      -1.24    2.08   -0.28
#  53   -0.06   -0.03    0.00    0.13   -0.01    0.00    0.00       0.04    3.78   -0.22
#  54   -0.32   -0.02    0.00    0.11   -0.01    0.00    0.00      -0.24    3.92   -0.28
#  55   -0.08   -0.01    0.00    0.06    0.00    0.00    0.00      -0.03    3.19   -0.15
#  56   -0.26   -0.02    0.00    0.00   -0.01    0.00    0.00      -0.28    0.19   -0.28
#  57   -0.04   -0.04    0.00   -0.01   -0.01    0.00    0.00      -0.11   -0.28   -0.28
#  58   -0.13   -0.02    0.00    0.02   -0.01    0.00    0.00      -0.13    0.99   -0.28
#  59   -0.44   -0.05    0.00    0.14   -0.01    0.00    0.00      -0.36    3.06   -0.27
#  60   -0.64   -0.03    0.00    0.03   -0.01    0.00    0.00      -0.64    0.99   -0.28
#  61   -2.06   -0.09    0.00    0.40   -0.03    0.00    0.00      -1.77    4.26   -0.28
#  62   -0.54   -0.06    0.00    0.33   -0.01    0.00    0.00      -0.29    5.85   -0.26
#  63   -3.45    0.00    0.00    0.92    0.02    0.00    0.00      -2.51   21.82    0.58

@<TRIPOS>MOLECULE
          T532187        22
   63    66     0     0     0



@<TRIPOS>ATOM
      1 N1          8.3650    -6.2466    88.6307 N.pl3      1          -0.6684
      2 H1          8.8575    -6.9299    88.1496 H          1           0.4681
      3 H2          8.8076    -5.4242    88.8934 H          1           0.4598
      4 C1          7.1083    -6.4307    88.9195 C.cat      1           0.7696
      5 N2          6.3599    -5.4723    89.6017 N.pl3      1          -0.6796
      6 C2          5.4445    -5.9670    90.5297 C.cat      1           0.7615
      7 N3          5.2264    -5.3714    91.6675 N.pl3      1          -0.6524
      8 H3          5.7075    -4.5589    91.8896 H          1           0.4589
      9 H4          4.5831    -5.7404    92.2926 H          1           0.4708
     10 N4          4.7787    -7.1305    90.1708 N.pl3      1          -0.4878
     11 O1          3.3827    -7.2671    90.3638 O.3        1          -0.0789
     12 C3          2.6615    -6.0361    90.2826 C.3        1           0.0050
     13 C4          1.1853    -6.3271    90.0052 C.3        1          -0.1138
     14 C5          0.6121    -7.1805    91.1384 C.3        1          -0.1139
     15 C6          0.7429    -6.4247    92.4623 C.3        1          -0.1162
     16 C7          0.1697    -7.2779    93.5955 C.3        1          -0.1375
     17 C8          0.3004    -6.5221    94.9193 C.3        1           0.1099
     18 N5          1.7139    -6.2434    95.1850 N.am       1          -0.5794
     19 C9          2.3599    -5.1346    94.7814 C.2        1           0.5771
     20 O2          1.8715    -4.2204    94.1483 O.2        1          -0.4623
     21 C10         3.7637    -5.2151    95.2373 C.ar       1          -0.1469
     22 C11         4.8685    -4.3872    95.1191 C.ar       1          -0.0419
     23 C12         6.0771    -4.7700    95.6795 C.ar       1          -0.0912
     24 C13         6.1872    -5.9711    96.3548 C.ar       1          -0.0909
     25 C14         5.0905    -6.8093    96.4810 C.ar       1          -0.0417
     26 C15         3.8759    -6.4397    95.9260 C.ar       1          -0.1465
     27 C16         2.5352    -7.0597    95.8694 C.2        1           0.5768
     28 O3          2.2273    -8.1283    96.3576 O.2        1          -0.4608
     29 C17         5.5771    -8.2164    89.5831 C.3        1           0.4077
     30 C18         4.6556    -9.2443    88.9280 C.3        1          -0.1355
     31 C19         5.4984   -10.3641    88.3129 C.3        1          -0.1367
     32 C20         6.3378   -11.0279    89.4063 C.3        1          -0.1308
     33 C21         7.2711    -9.9932    90.0377 C.3        1          -0.1174
     34 C22         6.4380    -8.8713    90.6623 C.3        1          -0.1398
     35 N6          6.4348    -7.5899    88.5610 N.pl3      1          -0.7131
     36 H5          6.4693    -4.5220    89.4411 H          1           0.4786
     37 H6          2.7546    -5.4978    91.2259 H          1           0.0744
     38 H7          3.0699    -5.4282    89.4754 H          1           0.0870
     39 H8          0.6352    -5.3883    89.9434 H          1           0.0907
     40 H9          1.0922    -6.8657    89.0621 H          1           0.0856
     41 H10        -0.4395    -7.3880    90.9408 H          1           0.0690
     42 H11         1.1622    -8.1194    91.2003 H          1           0.0719
     43 H12         1.7945    -6.2172    92.6600 H          1           0.0748
     44 H13         0.1928    -5.4858    92.4004 H          1           0.0731
     45 H14        -0.8821    -7.4853    93.3979 H          1           0.0710
     46 H15         0.7197    -8.2169    93.6573 H          1           0.0721
     47 H16        -0.2497    -5.5831    94.8574 H          1           0.0988
     48 H17        -0.1081    -7.1300    95.7266 H          1           0.0981
     49 H18         4.7884    -3.4478    94.5922 H          1           0.1440
     50 H19         6.9389    -4.1256    95.5875 H          1           0.1468
     51 H20         7.1344    -6.2586    96.7869 H          1           0.1469
     52 H21         5.1824    -7.7468    97.0095 H          1           0.1444
     53 H22         3.9866    -9.6637    89.6794 H          1           0.0952
     54 H23         4.0682    -8.7606    88.1476 H          1           0.1189
     55 H24         4.8414   -11.1057    87.8584 H          1           0.0977
     56 H25         6.1573    -9.9469    87.5515 H          1           0.0933
     57 H26         5.6783   -11.4368    90.1718 H          1           0.0874
     58 H27         6.9299   -11.8327    88.9706 H          1           0.0768
     59 H28         7.8745   -10.4710    90.8096 H          1           0.0705
     60 H29         7.9245    -9.5771    89.2709 H          1           0.0937
     61 H30         7.1022    -8.1257    91.0996 H          1           0.1223
     62 H31         5.7949    -9.2855    91.4389 H          1           0.0708
     63 H32         6.5274    -7.9715    87.6740 H          1           0.4640
@<TRIPOS>BOND
     1    1    2 1
     2    1    3 1
     3    1    4 2
     4    4   35 1
     5    4    5 1
     6    5    6 1
     7    5   36 1
     8    6    7 2
     9    6   10 1
    10    7    8 1
    11    7    9 1
    12   10   11 1
    13   10   29 1
    14   11   12 1
    15   12   13 1
    16   12   37 1
    17   12   38 1
    18   13   14 1
    19   13   39 1
    20   13   40 1
    21   14   15 1
    22   14   41 1
    23   14   42 1
    24   15   16 1
    25   15   43 1
    26   15   44 1
    27   16   17 1
    28   16   45 1
    29   16   46 1
    30   17   18 1
    31   17   47 1
    32   17   48 1
    33   18   27 am
    34   18   19 am
    35   19   20 2
    36   19   21 1
    37   21   26 ar
    38   21   22 ar
    39   22   23 ar
    40   22   49 1
    41   23   24 ar
    42   23   50 1
    43   24   25 ar
    44   24   51 1
    45   25   26 ar
    46   25   52 1
    47   26   27 1
    48   27   28 2
    49   29   34 1
    50   29   30 1
    51   29   35 1
    52   30   31 1
    53   30   53 1
    54   30   54 1
    55   31   32 1
    56   31   55 1
    57   31   56 1
    58   32   33 1
    59   32   57 1
    60   32   58 1
    61   33   34 1
    62   33   59 1
    63   33   60 1
    64   34   61 1
    65   34   62 1
    66   35   63 1
##########                 Name:              T534011
##########          Protonation:                   99
##########               SMILES:   c1c(ccc(c1)Cl)/C=C\C(=O)NCCCCC[NH+]2CC[C@@H](CC2)C(=O)Nc3ccc(cc3)Cl
##########            Long Name:   Z)-3-(4-chlorophenyl)prop-2-enoyl]amino]pentyl]piperidin-1-ium-4-carboxamide
##########          FlexRecCode: 1
##########               Number:                   97
##########   Ligand Source File: /raidb/db2/rgc/tcams/tcams-0001166.db2.gz
##########           GlobalRank: 218
##########                 Rank:                    1
##########               Setnum:                  362
##########             Matchnum:                  367
##########                Cloud:                    1
##########        Electrostatic:           -37.740646
##########        Van der Waals:           -30.790386
##########  Ligand Polar Desolv:             6.336801
########## Ligand Apolar Desolv:            -3.827559
##########      Internal Energy:             0.000000
##########      Receptor Energy: 0.0
########## Receptor Desolvation:             0.000000
########## Receptor Hydrophobic:             0.000000
##########         Total Energy: -66.02
##########        Ligand Charge:             1.000000
##########            Arbitrary:    +999.9990
##########     heavy atom count:   33
##########           pose count:    1
##########        Ligand Energy:             0.000000
# num electro vdwattr vdwrepu polsolv apolsol rdesolv rhydroe totalscore fullpol fullapo
#   1    0.84   -4.52    2.13   -0.30   -0.55    0.00    0.00      -2.40   -0.55   -0.99
#   2    0.66   -2.09    0.59   -0.36   -0.16    0.00    0.00      -1.36   -0.67   -0.30
#   3    1.68   -3.15    0.98   -0.51   -0.27    0.00    0.00      -1.28   -0.86   -0.46
#   4    1.67   -3.32    1.52   -0.76   -0.23    0.00    0.00      -1.12   -1.33   -0.40
#   5   -1.84   -1.83    0.35    1.06   -0.32    0.00    0.00      -2.57    2.25   -0.67
#   6   11.48   -1.89    0.39   -5.31    0.71    0.00    0.00       5.37  -12.26    1.63
#   7   -7.17   -1.24    0.13    3.73   -0.18    0.00    0.00      -4.74    9.86   -0.47
#   8    1.63   -2.03    1.52   -2.89    0.09    0.00    0.00      -1.69   -8.68    0.26
#   9    2.56   -0.68    0.03   -1.07   -0.08    0.00    0.00       0.76   -2.71   -0.20
#  10    2.17   -0.53    0.03   -1.19   -0.07    0.00    0.00       0.41   -3.98   -0.24
#  11    0.13   -0.39    0.03   -0.05   -0.07    0.00    0.00      -0.35   -0.26   -0.38
#  12    8.51   -0.56    0.03   -2.59    0.06    0.00    0.00       5.44  -11.03    0.27
#  13   -8.71   -0.01    0.00    2.71    0.09    0.00    0.00      -5.93   16.70    0.54
#  14    0.25   -0.51    0.06    0.05   -0.08    0.00    0.00      -0.24    0.21   -0.35
#  15    1.73   -0.33    0.02   -0.73   -0.04    0.00    0.00       0.64   -3.79   -0.21
#  16    0.97   -0.26    0.01   -0.45   -0.04    0.00    0.00       0.23   -2.59   -0.22
#  17    0.30   -0.21    0.01   -0.28   -0.03    0.00    0.00      -0.21   -2.11   -0.22
#  18   -0.25   -0.19    0.00    0.15   -0.05    0.00    0.00      -0.33    1.33   -0.43
#  19    2.14   -0.67    0.06   -1.67    0.47    0.00    0.00       0.33   -8.23    2.33
#  20   -1.81   -0.86    0.11    0.92   -0.14    0.00    0.00      -1.79    3.81   -0.59
#  21    1.52   -0.88    0.21   -0.29    0.06    0.00    0.00       0.63   -1.48    0.29
#  22    1.00   -1.90    0.80   -0.70   -0.16    0.00    0.00      -0.98   -1.96   -0.45
#  23    0.13   -1.72    0.44   -0.16   -0.17    0.00    0.00      -1.48   -0.43   -0.44
#  24    1.29   -0.94    0.09   -0.09   -0.09    0.00    0.00       0.26   -0.29   -0.30
#  25    1.08   -2.08    0.80   -0.05   -0.10    0.00    0.00      -0.35   -0.16   -0.31
#  26    3.73   -1.84    0.79   -0.08   -0.14    0.00    0.00       2.46   -0.28   -0.46
#  27    0.40   -0.55    0.04   -0.02   -0.06    0.00    0.00      -0.19   -0.11   -0.30
#  28    1.08   -1.60    0.48   -0.02   -0.21    0.00    0.00      -0.27   -0.09   -0.99
#  29    1.39   -0.30    0.01   -0.04   -0.05    0.00    0.00       1.01   -0.31   -0.46
#  30    1.05   -0.57    0.05   -0.08   -0.09    0.00    0.00       0.36   -0.43   -0.45
#  31    0.79   -0.77    0.11   -0.10   -0.12    0.00    0.00      -0.08   -0.28   -0.35
#  32    3.40   -0.90    0.09   -1.32   -0.09    0.00    0.00       1.18   -3.27   -0.22
#  33    1.45   -1.28    0.11   -0.63   -0.18    0.00    0.00      -0.52   -1.62   -0.46
#  34    0.97   -1.43    0.17   -0.41   -0.18    0.00    0.00      -0.87   -1.02   -0.46
#  35   -3.82   -1.32    2.12    0.42   -0.17    0.00    0.00      -2.78    0.68   -0.28
#  36   -2.16   -1.31    1.53    0.74   -0.12    0.00    0.00      -1.33    1.23   -0.20
#  37   -9.16   -0.06    0.00    4.24    0.22    0.00    0.00      -4.76   10.21    0.54
#  38   -3.22   -0.29    0.03    1.36   -0.11    0.00    0.00      -2.23    3.60   -0.28
#  39   -1.25   -0.25    0.04    0.97   -0.07    0.00    0.00      -0.56    3.58   -0.26
#  40   -2.23   -0.14    0.00    0.72   -0.04    0.00    0.00      -1.68    5.34   -0.28
#  41   -0.84   -0.17    0.03    0.30   -0.03    0.00    0.00      -0.70    2.32   -0.25
#  42   -0.94   -0.09    0.00    0.59   -0.03    0.00    0.00      -0.46    6.35   -0.28
#  43   -5.07   -0.47    0.26    0.73   -0.07    0.00    0.00      -4.61    2.91   -0.28
#  44   -2.56   -0.09    0.00    0.43   -0.02    0.00    0.00      -2.24    5.38   -0.28
#  45   -0.59   -0.05    0.00    0.18   -0.01    0.00    0.00      -0.47    3.76   -0.28
#  46   -0.86   -0.21    0.05    0.44   -0.04    0.00    0.00      -0.60    2.55   -0.22
#  47   -0.94   -0.15    0.01    0.15   -0.05    0.00    0.00      -0.97    0.90   -0.28
#  48   -0.70   -0.04    0.00    0.06   -0.01    0.00    0.00      -0.69    1.54   -0.28
#  49   -0.11   -0.03    0.00    0.07   -0.01    0.00    0.00      -0.08    2.00   -0.28
#  50   -0.14   -0.11    0.01    0.19   -0.03    0.00    0.00      -0.09    1.59   -0.28
#  51   -0.14   -0.03    0.00    0.00   -0.01    0.00    0.00      -0.18    0.11   -0.28
#  52   -0.12   -0.05    0.00    0.02   -0.01    0.00    0.00      -0.17    0.34   -0.28
#  53   -1.34   -0.02    0.00    1.24    0.10    0.00    0.00      -0.01    6.76    0.56
#  54   -0.64   -0.53    0.34    1.07   -0.10    0.00    0.00       0.14    2.99   -0.28
#  55   -3.72   -0.41    0.08    0.80   -0.10    0.00    0.00      -3.34    2.22   -0.28
#  56   -5.83   -1.37    2.63    0.26   -0.10    0.00    0.00      -4.41    0.63   -0.25
#  57   -5.70   -1.13    1.78    0.13   -0.10    0.00    0.00      -5.00    0.39   -0.28
#  58   -0.92   -0.03    0.00    0.02   -0.01    0.00    0.00      -0.95    0.43   -0.28
#  59   -1.26   -0.26    0.14    0.17   -0.04    0.00    0.00      -1.25    1.14   -0.28
#  60   -4.50   -0.18    0.02    0.31   -0.03    0.00    0.00      -4.38    2.00   -0.20
#  61   -6.22   -0.58    0.39    1.54   -0.07    0.00    0.00      -4.95    4.54   -0.22
#  62   -2.74   -0.34    0.06    1.38   -0.08    0.00    0.00      -1.72    4.74   -0.28
#  63   -3.63   -0.49    0.11    0.43   -0.10    0.00    0.00      -3.68    1.18   -0.28
#  64   -1.28   -0.19    0.01    0.63   -0.05    0.00    0.00      -0.87    3.55   -0.28
#  65   -1.34   -0.22    0.02    0.31   -0.06    0.00    0.00      -1.29    1.45   -0.28

@<TRIPOS>MOLECULE
          T534011        99
   65    67     0     0     0



@<TRIPOS>ATOM
      1 Cl1         9.3216    -9.9022    99.0313 Cl         1          -0.0556
      2 C1          8.0024    -8.9118    98.4902 C.ar       1          -0.0435
      3 C2          7.4627    -7.9582    99.3353 C.ar       1          -0.0891
      4 C3          6.4131    -7.1690    98.9072 C.ar       1          -0.1122
      5 C4          5.8999    -7.3329    97.6274 C.ar       1           0.1321
      6 N1          4.8365    -6.5340    97.1910 N.am       1          -0.6609
      7 C5          3.9579    -7.0154    96.2896 C.2        1           0.5093
      8 O1          4.0884    -8.1408    95.8564 O.2        1          -0.5131
      9 C6          2.8129    -6.1554    95.8197 C.3        1          -0.1240
     10 C7          1.9739    -6.9318    94.8008 C.3        1          -0.1389
     11 C8          2.8333    -7.2468    93.5746 C.3        1          -0.0116
     12 N2          3.3062    -5.9958    92.9696 N.4        1          -0.3810
     13 H1          2.5142    -5.4164    92.7349 H          1           0.4208
     14 C9          4.0668    -6.3002    91.7503 C.3        1          -0.0105
     15 C10         3.0971    -6.5693    90.5980 C.3        1          -0.1471
     16 C11         3.8893    -6.8863    89.3281 C.3        1          -0.1150
     17 C12         2.9195    -7.1555    88.1758 C.3        1          -0.1322
     18 C13         3.7118    -7.4725    86.9057 C.3        1           0.1191
     19 N3          4.5682    -6.3331    86.5673 N.am       1          -0.7325
     20 C14         5.3619    -6.3864    85.4794 C.2        1           0.5394
     21 O2          5.3672    -7.3811    84.7782 O.2        1          -0.5207
     22 C15         6.2176    -5.2479    85.1411 C.2        1          -0.2216
     23 C16         7.1556    -4.8267    86.0136 C.2        1          -0.0094
     24 C17         7.4786    -5.6403    87.1964 C.ar       1          -0.0711
     25 C18         7.3055    -5.1130    88.4804 C.ar       1          -0.0342
     26 C19         7.6098    -5.8809    89.5839 C.ar       1          -0.1198
     27 C20         8.0863    -7.1719    89.4235 C.ar       1          -0.0216
     28 Cl2         8.4674    -8.1316    90.8191 Cl         1          -0.0703
     29 C21         8.2598    -7.7009    88.1548 C.ar       1          -0.1189
     30 C22         7.9548    -6.9463    87.0424 C.ar       1          -0.0854
     31 C23         4.1703    -5.2804    93.9161 C.3        1          -0.0246
     32 C24         3.3623    -4.8897    95.1554 C.3        1          -0.1230
     33 C25         6.4436    -8.2902    96.7812 C.ar       1          -0.1305
     34 C26         7.4962    -9.0735    97.2125 C.ar       1          -0.0877
     35 H2          7.8622    -7.8312   100.3306 H          1           0.1408
     36 H3          5.9918    -6.4255    99.5675 H          1           0.1501
     37 H4          4.7319    -5.6341    97.5374 H          1           0.4153
     38 H5          2.1910    -5.8795    96.6713 H          1           0.1341
     39 H6          1.6252    -7.8619    95.2495 H          1           0.1159
     40 H7          1.1172    -6.3286    94.4997 H          1           0.1081
     41 H8          3.6894    -7.8500    93.8768 H          1           0.1250
     42 H9          2.2390    -7.7997    92.8472 H          1           0.1378
     43 H10         4.7040    -5.4524    91.4985 H          1           0.1296
     44 H11         4.6851    -7.1821    91.9184 H          1           0.1319
     45 H12         2.4598    -7.4169    90.8499 H          1           0.0882
     46 H13         2.4789    -5.6874    90.4298 H          1           0.0887
     47 H14         4.5265    -6.0387    89.0762 H          1           0.0785
     48 H15         4.5075    -7.7682    89.4962 H          1           0.0785
     49 H16         2.2822    -8.0032    88.4276 H          1           0.0741
     50 H17         2.3013    -6.2735    88.0076 H          1           0.0740
     51 H18         4.3300    -8.3543    87.0739 H          1           0.0688
     52 H19         3.0208    -7.6642    86.0848 H          1           0.0688
     53 H20         4.5639    -5.5403    87.1262 H          1           0.4007
     54 H21         6.0978    -4.7454    84.1926 H          1           0.1359
     55 H22         7.6697    -3.8921    85.8443 H          1           0.1429
     56 H23         6.9347    -4.1066    88.6068 H          1           0.1194
     57 H24         7.4765    -5.4751    90.5758 H          1           0.1300
     58 H25         8.6317    -8.7078    88.0372 H          1           0.1343
     59 H26         8.0868    -7.3612    86.0540 H          1           0.1325
     60 H27         4.9980    -5.9255    94.2110 H          1           0.1482
     61 H28         4.5631    -4.3815    93.4408 H          1           0.1341
     62 H29         2.5345    -4.2442    94.8617 H          1           0.0994
     63 H30         4.0062    -4.3602    95.8576 H          1           0.1209
     64 H31         6.0462    -8.4195    95.7853 H          1           0.1365
     65 H32         7.9219    -9.8157    96.5534 H          1           0.1426
@<TRIPOS>BOND
     1    1    2 1
     2    2   34 ar
     3    2    3 ar
     4    3    4 ar
     5    3   35 1
     6    4    5 ar
     7    4   36 1
     8    5    6 1
     9    5   33 ar
    10    6    7 am
    11    6   37 1
    12    7    8 2
    13    7    9 1
    14    9   32 1
    15    9   10 1
    16    9   38 1
    17   10   11 1
    18   10   39 1
    19   10   40 1
    20   11   12 1
    21   11   41 1
    22   11   42 1
    23   12   13 1
    24   12   14 1
    25   12   31 1
    26   14   15 1
    27   14   43 1
    28   14   44 1
    29   15   16 1
    30   15   45 1
    31   15   46 1
    32   16   17 1
    33   16   47 1
    34   16   48 1
    35   17   18 1
    36   17   49 1
    37   17   50 1
    38   18   19 1
    39   18   51 1
    40   18   52 1
    41   19   20 am
    42   19   53 1
    43   20   21 2
    44   20   22 1
    45   22   23 2
    46   22   54 1
    47   23   24 1
    48   23   55 1
    49   24   30 ar
    50   24   25 ar
    51   25   26 ar
    52   25   56 1
    53   26   27 ar
    54   26   57 1
    55   27   28 1
    56   27   29 ar
    57   29   30 ar
    58   29   58 1
    59   30   59 1
    60   31   32 1
    61   31   60 1
    62   31   61 1
    63   32   62 1
    64   32   63 1
    65   33   34 ar
    66   33   64 1
    67   34   65 1
##########                 Name:              T541871
##########          Protonation:                   26
##########               SMILES:   COc1cc2c(nccc2[C@H](O)C[NH+]3CC[C@@H](CC3)[NH2+]CCOc4c(c(ccc4)F)F)cc1
##########            Long Name:   -[(2S)-2-hydroxy-2-(6-methoxy-4-quinolyl)ethyl]piperidin-1-ium-4-yl]ammonium
##########          FlexRecCode: 1
##########               Number:                  264
##########   Ligand Source File: /raidb/db2/rgc/tcams/tcams-0002155.db2.gz
##########           GlobalRank: 218
##########                 Rank:                    1
##########               Setnum:                  200
##########             Matchnum:                 1789
##########                Cloud:                    1
##########        Electrostatic:           -41.997814
##########        Van der Waals:           -32.259747
##########  Ligand Polar Desolv:            11.719418
########## Ligand Apolar Desolv:            -3.483841
##########      Internal Energy:             0.000000
##########      Receptor Energy: 0.0
########## Receptor Desolvation:             0.000000
########## Receptor Hydrophobic:             0.000000
##########         Total Energy: -66.02
##########        Ligand Charge:             2.000000
##########            Arbitrary:    +999.9990
##########     heavy atom count:   33
##########           pose count:    1
##########        Ligand Energy:             0.000000
# num electro vdwattr vdwrepu polsolv apolsol rdesolv rhydroe totalscore fullpol fullapo
#   1   -0.63   -1.29    0.29    0.10    0.01    0.00    0.00      -1.51    0.24    0.03
#   2    9.54   -1.93    0.49   -2.99    0.42    0.00    0.00       5.53   -6.66    0.93
#   3   -1.51   -2.22    0.86    0.76   -0.13    0.00    0.00      -2.24    1.84   -0.31
#   4    0.85   -2.42    0.79   -1.38   -0.20    0.00    0.00      -2.36   -2.92   -0.43
#   5    0.11   -2.37    0.72   -0.94   -0.22    0.00    0.00      -2.70   -1.92   -0.46
#   6   -0.26   -1.85    0.69    0.11   -0.28    0.00    0.00      -1.59    0.29   -0.73
#   7    0.80   -2.02    0.76   -2.68    0.70    0.00    0.00      -2.44   -7.64    2.00
#   8   -0.19   -1.09    0.24    0.35   -0.24    0.00    0.00      -0.92    1.43   -0.97
#   9    0.22   -0.45    0.03   -0.65   -0.07    0.00    0.00      -0.93   -3.96   -0.44
#  10    0.26   -0.54    0.05   -0.17   -0.06    0.00    0.00      -0.46   -0.99   -0.35
#  11   -0.64   -0.21    0.01    0.72   -0.01    0.00    0.00      -0.13    5.43   -0.11
#  12    1.61   -0.11    0.00   -1.20    0.09    0.00    0.00       0.39  -21.05    1.58
#  13    0.42   -0.43    0.03   -0.21   -0.07    0.00    0.00      -0.25   -0.92   -0.32
#  14    6.59   -0.42    0.03   -3.35    0.05    0.00    0.00       2.90  -17.79    0.27
#  15   -4.52    0.00    0.00    1.02    0.02    0.00    0.00      -3.48   22.69    0.49
#  16    0.04   -0.42    0.03   -0.05   -0.08    0.00    0.00      -0.49   -0.23   -0.38
#  17    3.03   -0.36    0.01   -1.72   -0.05    0.00    0.00       0.93   -8.72   -0.24
#  18   -0.40   -0.68    0.18    0.58   -0.06    0.00    0.00      -0.38    2.34   -0.23
#  19    4.67   -0.68    0.18   -2.17   -0.05    0.00    0.00       1.95   -9.08   -0.20
#  20    0.33   -0.84    0.30   -0.34   -0.09    0.00    0.00      -0.64   -1.42   -0.37
#  21    9.98   -0.66    0.04   -7.18    0.17    0.00    0.00       2.36  -26.34    0.63
#  22   -4.30   -0.01    0.00    3.19    0.07    0.00    0.00      -1.05   25.29    0.56
#  23   -9.45   -0.02    0.00    4.41    0.10    0.00    0.00      -4.95   22.70    0.53
#  24    0.08   -0.65    0.04    0.49   -0.15    0.00    0.00      -0.19    1.39   -0.42
#  25   -0.32   -0.92    0.11   -0.55   -0.04    0.00    0.00      -1.71   -1.30   -0.09
#  26    5.46   -1.26    0.14   -4.61    0.37    0.00    0.00       0.11  -10.43    0.84
#  27   -1.55   -1.59    0.19    2.38   -0.15    0.00    0.00      -0.73    4.82   -0.31
#  28    3.61   -2.39    0.44   -2.56   -0.24    0.00    0.00      -1.14   -4.39   -0.42
#  29    1.04   -3.09    1.31   -0.82   -0.27    0.00    0.00      -1.84   -1.41   -0.47
#  30    1.81   -2.70    1.70   -1.95   -0.26    0.00    0.00      -1.40   -3.59   -0.47
#  31   -1.00   -2.19    1.24    0.02   -0.16    0.00    0.00      -2.09    0.05   -0.34
#  32    0.65   -1.06    0.20   -1.08   -0.25    0.00    0.00      -1.55   -2.02   -0.47
#  33   -0.39   -1.56    0.29   -0.20   -0.13    0.00    0.00      -2.00   -0.51   -0.34
#  34    0.58   -0.75    0.08   -0.97   -0.17    0.00    0.00      -1.23   -2.69   -0.47
#  35    0.14   -1.19    0.30   -0.45   -0.11    0.00    0.00      -1.30   -1.67   -0.40
#  36    0.88   -1.47    0.46   -0.78   -0.13    0.00    0.00      -1.03   -2.58   -0.43
#  37   -4.01   -0.48    0.13    1.24   -0.12    0.00    0.00      -3.24    2.99   -0.28
#  38   -2.77   -0.75    0.49    0.28   -0.10    0.00    0.00      -2.86    0.73   -0.27
#  39   -1.53   -0.16    0.01    0.22   -0.05    0.00    0.00      -1.51    1.19   -0.27
#  40   -1.33   -0.48    0.15    0.92   -0.10    0.00    0.00      -0.84    2.03   -0.22
#  41   -0.51   -0.80    1.12    0.28   -0.14    0.00    0.00      -0.06    0.55   -0.28
#  42   -0.24   -0.30    0.17    0.54   -0.05    0.00    0.00       0.12    2.78   -0.28
#  43   -0.21   -0.04    0.00    0.29   -0.01    0.00    0.00       0.03    7.08   -0.22
#  44   -1.12   -0.05    0.00    0.30   -0.01    0.00    0.00      -0.88    6.58   -0.18
#  45   -1.37    0.00    0.00    0.49    0.03    0.00    0.00      -0.85   16.42    1.00
#  46   -2.20   -0.31    0.06    2.09   -0.08    0.00    0.00      -0.43    7.61   -0.28
#  47   -0.61   -0.11    0.01    0.97   -0.03    0.00    0.00       0.22    7.79   -0.28
#  48   -4.18   -0.28    0.05    2.06   -0.07    0.00    0.00      -2.42    8.65   -0.28
#  49   -1.76   -0.08    0.00    0.60   -0.02    0.00    0.00      -1.26    7.10   -0.28
#  50   -2.53   -0.10    0.00    0.65   -0.02    0.00    0.00      -2.01    7.43   -0.28
#  51   -0.90   -0.12    0.01    0.66   -0.03    0.00    0.00      -0.38    6.25   -0.28
#  52   -7.07   -0.60    0.91    2.58   -0.06    0.00    0.00      -4.24   11.79   -0.28
#  53   -4.46   -0.38    0.15    1.78   -0.06    0.00    0.00      -2.96    7.00   -0.22
#  54   -1.87   -0.09    0.00    0.47   -0.02    0.00    0.00      -1.51    5.76   -0.28
#  55   -3.54   -0.13    0.01    0.72   -0.03    0.00    0.00      -2.96    5.77   -0.22
#  56   -7.00   -1.12    2.15    2.68   -0.08    0.00    0.00      -3.37    9.34   -0.28
#  57   -4.27   -0.28    0.03    2.08   -0.06    0.00    0.00      -2.49    7.59   -0.21
#  58   -3.14   -0.16    0.00    1.76   -0.04    0.00    0.00      -1.58   11.70   -0.28
#  59   -1.96   -0.48    0.19    1.52   -0.10    0.00    0.00      -0.83    3.88   -0.26
#  60   -0.82   -0.31    0.04    1.74   -0.08    0.00    0.00       0.58    6.05   -0.27
#  61   -3.22   -0.69    0.18    4.57   -0.12    0.00    0.00       0.72    8.12   -0.22
#  62   -3.81   -1.22    1.39    2.61   -0.17    0.00    0.00      -1.20    4.37   -0.28
#  63   -1.59   -0.61    0.36    0.98   -0.15    0.00    0.00      -1.01    1.84   -0.28
#  64   -1.50   -0.19    0.02    1.48   -0.04    0.00    0.00      -0.22    8.88   -0.22

@<TRIPOS>MOLECULE
          T541871        26
   64    67     0     0     0



@<TRIPOS>ATOM
      1 C1          8.2916    -4.4871    87.6288 C.3        1           0.0188
      2 O1          7.8599    -3.9484    86.3777 O.3        1          -0.3162
      3 C2          6.6611    -4.3769    85.9022 C.ar       1           0.1636
      4 C3          6.1881    -3.8896    84.6798 C.ar       1          -0.1771
      5 C4          4.9926    -4.2993    84.1777 C.ar       1          -0.0290
      6 C5          4.2145    -5.2271    84.8932 C.ar       1           0.0985
      7 N1          3.0360    -5.6464    84.4215 N.ar       1          -0.4352
      8 C6          2.3058    -6.5112    85.0828 C.ar       1           0.1196
      9 C7          2.7182    -7.0357    86.3059 C.ar       1          -0.1273
     10 C8          3.9122    -6.6498    86.8450 C.ar       1          -0.1066
     11 C9          4.3804    -7.2032    88.1662 C.3        1           0.1376
     12 O2          3.8647    -8.5247    88.3386 O.3        1          -0.5440
     13 C10         3.8783    -6.3079    89.3008 C.3        1          -0.0466
     14 N2          4.3347    -6.8474    90.5888 N.4        1          -0.3850
     15 H1          4.2631    -7.8537    90.5749 H          1           0.4317
     16 C11         3.4939    -6.3132    91.6668 C.3        1          -0.0021
     17 C12         3.9128    -6.9345    93.0009 C.3        1          -0.1705
     18 C13         5.3796    -6.5929    93.2786 C.3        1           0.0141
     19 C14         6.2387    -7.0893    92.1121 C.3        1          -0.1711
     20 C15         5.7330    -6.4609    90.8117 C.3        1          -0.0110
     21 N3          5.8104    -7.2495    94.5200 N.4        1          -0.5081
     22 H2          5.4191    -8.1786    94.5624 H          1           0.4379
     23 H3          6.8176    -7.3077    94.5379 H          1           0.4389
     24 C16         5.3446    -6.4688    95.6740 C.3        1          -0.0038
     25 C17         5.7932    -7.1526    96.9670 C.3        1           0.0215
     26 O3          7.2196    -7.2350    96.9922 O.3        1          -0.3228
     27 C18         7.7655    -8.2852    97.6612 C.ar       1           0.1056
     28 C19         8.6114    -8.0593    98.7370 C.ar       1          -0.1867
     29 C20         9.1657    -9.1270    99.4165 C.ar       1          -0.0518
     30 C21         8.8786   -10.4219    99.0263 C.ar       1          -0.1423
     31 C22         8.0346   -10.6529    97.9533 C.ar       1           0.1165
     32 F1          7.7550   -11.9189    97.5739 F          1          -0.1099
     33 C23         7.4727    -9.5853    97.2721 C.ar       1           0.0418
     34 F2          6.6452    -9.8090    96.2280 F          1          -0.1209
     35 C24         4.6939    -5.7208    86.1319 C.ar       1          -0.0437
     36 C25         5.9343    -5.2830    86.6211 C.ar       1          -0.1874
     37 H4          9.2606    -4.0630    87.8920 H          1           0.1103
     38 H5          7.5643    -4.2386    88.4018 H          1           0.0659
     39 H6          8.3793    -5.5705    87.5471 H          1           0.0645
     40 H7          6.7812    -3.1767    84.1261 H          1           0.1478
     41 H8          4.6415    -3.9129    83.2323 H          1           0.1522
     42 H9          1.3591    -6.8251    84.6684 H          1           0.1714
     43 H10         2.0942    -7.7465    86.8272 H          1           0.1416
     44 H11         5.4698    -7.2333    88.1820 H          1           0.1357
     45 H12         4.1263    -8.9439    89.1697 H          1           0.3928
     46 H13         4.2717    -5.2998    89.1694 H          1           0.1502
     47 H14         2.7889    -6.2777    89.2850 H          1           0.1470
     48 H15         3.6127    -5.2309    91.7173 H          1           0.1438
     49 H16         2.4500    -6.5541    91.4662 H          1           0.1530
     50 H17         3.2886    -6.5352    93.8004 H          1           0.1396
     51 H18         3.7940    -8.0168    92.9517 H          1           0.1147
     52 H19         5.4899    -5.5131    93.3787 H          1           0.1599
     53 H20         7.2769    -6.8009    92.2760 H          1           0.1383
     54 H21         6.1683    -8.1749    92.0443 H          1           0.1172
     55 H22         6.3434    -6.8111    89.9792 H          1           0.1523
     56 H23         5.8029    -5.3753    90.8807 H          1           0.1455
     57 H24         5.7674    -5.4651    95.6282 H          1           0.1471
     58 H25         4.2566    -6.4059    95.6547 H          1           0.1602
     59 H26         5.4476    -6.5733    97.8231 H          1           0.1209
     60 H27         5.3706    -8.1563    97.0128 H          1           0.0958
     61 H28         8.8369    -7.0486    99.0435 H          1           0.1460
     62 H29         9.8247    -8.9499   100.2535 H          1           0.1546
     63 H30         9.3137   -11.2546    99.5590 H          1           0.1598
     64 H31         6.3101    -5.6570    87.5620 H          1           0.1251
@<TRIPOS>BOND
     1    1    2 1
     2    1   37 1
     3    1   38 1
     4    1   39 1
     5    2    3 1
     6    3   36 ar
     7    3    4 ar
     8    4    5 ar
     9    4   40 1
    10    5    6 ar
    11    5   41 1
    12    6   35 ar
    13    6    7 ar
    14    7    8 ar
    15    8    9 ar
    16    8   42 1
    17    9   10 ar
    18    9   43 1
    19   10   11 1
    20   10   35 ar
    21   11   12 1
    22   11   13 1
    23   11   44 1
    24   12   45 1
    25   13   14 1
    26   13   46 1
    27   13   47 1
    28   14   15 1
    29   14   20 1
    30   14   16 1
    31   16   17 1
    32   16   48 1
    33   16   49 1
    34   17   18 1
    35   17   50 1
    36   17   51 1
    37   18   19 1
    38   18   21 1
    39   18   52 1
    40   19   20 1
    41   19   53 1
    42   19   54 1
    43   20   55 1
    44   20   56 1
    45   21   22 1
    46   21   23 1
    47   21   24 1
    48   24   25 1
    49   24   57 1
    50   24   58 1
    51   25   26 1
    52   25   59 1
    53   25   60 1
    54   26   27 1
    55   27   33 ar
    56   27   28 ar
    57   28   29 ar
    58   28   61 1
    59   29   30 ar
    60   29   62 1
    61   30   31 ar
    62   30   63 1
    63   31   32 1
    64   31   33 ar
    65   33   34 1
    66   35   36 ar
    67   36   64 1
##########                 Name:              T528215
##########          Protonation:                   15
##########               SMILES:   C[NH+]1CC[C@H](C1)Oc2ccc(cc2Cl)C[NH+]3CC[C@H](C3)NC(=O)c4ccc(c(c4)Cl)Cl
##########            Long Name:   ethylpyrrolidin-1-ium-3-yl]oxy-phenyl]methyl]pyrrolidin-1-ium-3-yl]benzamide
##########          FlexRecCode: 1
##########               Number:                  120
##########   Ligand Source File: /raidb/db2/rgc/tcams/tcams-0000425.db2.gz
##########           GlobalRank: 219
##########                 Rank:                    1
##########               Setnum:                  233
##########             Matchnum:                 1555
##########                Cloud:                    1
##########        Electrostatic:           -57.488621
##########        Van der Waals:           -27.829399
##########  Ligand Polar Desolv:            23.598913
########## Ligand Apolar Desolv:            -4.281955
##########      Internal Energy:             0.000000
##########      Receptor Energy: 0.0
########## Receptor Desolvation:             0.000000
########## Receptor Hydrophobic:             0.000000
##########         Total Energy: -66.0
##########        Ligand Charge:             2.000000
##########            Arbitrary:    +999.9990
##########     heavy atom count:   31
##########           pose count:    1
##########        Ligand Energy:             0.000000
# num electro vdwattr vdwrepu polsolv apolsol rdesolv rhydroe totalscore fullpol fullapo
#   1    1.15   -1.73    0.33   -1.23   -0.31    0.00    0.00      -1.80   -1.80   -0.46
#   2    9.40   -1.59    0.23   -8.50    0.35    0.00    0.00      -0.11  -14.29    0.59
#   3  -10.74   -0.05    0.00    8.25    0.25    0.00    0.00      -2.29   18.75    0.56
#   4    0.21   -1.55    0.33    0.17   -0.28    0.00    0.00      -1.12    0.30   -0.49
#   5    4.29   -0.96    0.10   -2.65   -0.11    0.00    0.00       0.65   -6.14   -0.26
#   6   -1.21   -0.87    0.10    0.62   -0.05    0.00    0.00      -1.41    1.56   -0.12
#   7    0.22   -1.33    0.43    0.03   -0.22    0.00    0.00      -0.87    0.07   -0.48
#   8    3.34   -0.76    0.07   -2.89    0.24    0.00    0.00       0.00   -9.81    0.82
#   9   -1.28   -1.12    0.47    0.91   -0.07    0.00    0.00      -1.09    3.85   -0.31
#  10    3.02   -1.05    0.24   -1.74   -0.10    0.00    0.00       0.36   -6.88   -0.41
#  11    1.04   -1.21    0.25   -0.41   -0.11    0.00    0.00      -0.44   -1.47   -0.41
#  12    3.08   -1.17    0.25   -1.41   -0.09    0.00    0.00       0.66   -5.13   -0.34
#  13   -1.24   -0.97    0.27    0.67   -0.09    0.00    0.00      -1.36    2.38   -0.32
#  14   10.76   -0.88    0.27   -3.45    0.10    0.00    0.00       6.81  -15.46    0.45
#  15  -15.64   -0.03    0.00    3.87    0.10    0.00    0.00     -11.69   20.92    0.56
#  16    0.23   -0.76    0.20    0.14   -0.10    0.00    0.00      -0.29    0.56   -0.39
#  17    2.32   -0.23    0.01   -0.83   -0.04    0.00    0.00       1.23   -5.69   -0.29
#  18   -1.48   -0.22    0.01    0.50   -0.04    0.00    0.00      -1.24    3.52   -0.31
#  19    0.29   -0.22    0.01    0.06   -0.06    0.00    0.00       0.07    0.44   -0.47
#  20    9.11   -0.67    0.06   -4.43    0.45    0.00    0.00       4.53  -20.28    2.08
#  21   -3.13   -1.03    0.22    2.90   -0.15    0.00    0.00      -1.20   12.29   -0.65
#  22   -0.88   -2.95    4.04   -2.29    0.09    0.00    0.00      -1.99   -9.67    0.39
#  23    0.92   -1.17    0.18   -0.70   -0.12    0.00    0.00      -0.89   -2.39   -0.41
#  24    0.25   -1.56    0.29   -0.13   -0.16    0.00    0.00      -1.31   -0.37   -0.44
#  25    0.62   -1.69    0.36   -0.79   -0.19    0.00    0.00      -1.69   -1.95   -0.46
#  26    0.01   -1.55    0.26   -0.28   -0.13    0.00    0.00      -1.68   -0.65   -0.29
#  27    0.35   -5.59    4.77   -0.55   -0.53    0.00    0.00      -1.55   -0.97   -0.95
#  28    0.57   -1.61    0.34   -0.37   -0.11    0.00    0.00      -1.17   -0.95   -0.29
#  29    0.41   -5.91    4.51   -0.48   -0.49    0.00    0.00      -1.96   -0.93   -0.95
#  30    0.45   -1.46    0.40   -0.34   -0.14    0.00    0.00      -1.09   -1.06   -0.44
#  31    0.16   -1.08    0.40   -0.45   -0.11    0.00    0.00      -1.08   -1.85   -0.45
#  32    0.11   -1.15    0.67   -0.87   -0.06    0.00    0.00      -1.31   -3.90   -0.29
#  33    0.02   -1.34    0.17   -0.79   -0.24    0.00    0.00      -2.18   -3.19   -0.97
#  34   -3.03   -0.53    0.07    2.47   -0.16    0.00    0.00      -1.17    4.44   -0.28
#  35   -3.10   -0.61    0.19    2.62   -0.15    0.00    0.00      -1.04    4.97   -0.28
#  36   -2.94   -0.77    0.30    3.10   -0.17    0.00    0.00      -0.48    5.19   -0.28
#  37   -3.35   -0.86    0.68    2.82   -0.11    0.00    0.00      -0.82    6.68   -0.26
#  38   -3.67   -0.71    0.24    3.25   -0.15    0.00    0.00      -1.04    6.18   -0.28
#  39   -2.92   -0.33    0.05    1.46   -0.08    0.00    0.00      -1.81    4.69   -0.25
#  40   -3.45   -0.33    0.07    0.77   -0.08    0.00    0.00      -3.02    2.59   -0.28
#  41   -1.77   -0.51    0.28    1.76   -0.08    0.00    0.00      -0.31    5.02   -0.22
#  42   -3.56   -0.74    1.00    1.51   -0.09    0.00    0.00      -1.88    4.47   -0.28
#  43   -3.33   -1.04    2.38    2.26   -0.10    0.00    0.00       0.18    6.18   -0.26
#  44   -2.93   -0.15    0.01    1.02   -0.03    0.00    0.00      -2.07    6.72   -0.18
#  45   -4.74   -0.25    0.04    1.74   -0.05    0.00    0.00      -3.26    8.06   -0.25
#  46   -1.97   -0.13    0.01    1.11   -0.04    0.00    0.00      -1.02    7.76   -0.28
#  47   -6.77   -1.12    1.80    2.72   -0.10    0.00    0.00      -3.47    7.70   -0.27
#  48   -3.93   -0.24    0.04    1.42   -0.04    0.00    0.00      -2.75    6.84   -0.21
#  49   -4.77   -0.46    0.24    1.96   -0.08    0.00    0.00      -3.11    6.96   -0.28
#  50   -1.34   -0.03    0.00    0.05   -0.01    0.00    0.00      -1.33    1.41   -0.28
#  51   -1.36   -0.08    0.00    0.28   -0.02    0.00    0.00      -1.17    3.46   -0.28
#  52   -0.69   -0.05    0.00    0.13   -0.01    0.00    0.00      -0.62    2.77   -0.26
#  53   -1.47   -0.07    0.00    0.58   -0.02    0.00    0.00      -0.98    8.25   -0.26
#  54   -1.27   -0.04    0.00    0.30   -0.01    0.00    0.00      -1.01    7.86   -0.26
#  55   -7.47   -0.02    0.00    2.85    0.08    0.00    0.00      -4.56   15.18    0.43
#  56   -0.10   -0.45    0.14    2.33   -0.07    0.00    0.00       1.85    7.89   -0.22
#  57   -0.81   -0.44    0.14    1.40   -0.10    0.00    0.00       0.20    4.01   -0.28
#  58   -3.14   -0.30    0.08    0.29   -0.06    0.00    0.00      -3.13    1.35   -0.26
#  59   -0.34   -0.14    0.01    0.83   -0.04    0.00    0.00       0.32    5.59   -0.28

@<TRIPOS>MOLECULE
          T528215        15
   59    62     0     0     0



@<TRIPOS>ATOM
      1 C1         -3.5714    -2.0781    93.2923 C.3        1          -0.0483
      2 N1         -2.9247    -3.3701    93.5580 N.4        1          -0.3883
      3 H1         -3.5814    -3.9943    94.0023 H          1           0.4365
      4 C2         -1.7549    -3.1689    94.4393 C.3        1          -0.0084
      5 C3         -0.7040    -4.1923    93.9416 C.3        1          -0.1737
      6 C4         -0.9348    -4.1577    92.4077 C.3        1           0.0657
      7 C5         -2.4580    -3.9613    92.2906 C.3        1          -0.0093
      8 O1         -0.5352    -5.3920    91.8086 O.3        1          -0.2794
      9 C6          0.7551    -5.4863    91.3917 C.ar       1           0.1631
     10 C7          1.7918    -5.3383    92.3012 C.ar       1          -0.1941
     11 C8          3.1024    -5.4350    91.8752 C.ar       1          -0.0454
     12 C9          3.3818    -5.6788    90.5432 C.ar       1          -0.1743
     13 C10         4.8126    -5.7834    90.0818 C.3        1           0.0464
     14 N2          5.5702    -6.6207    91.0214 N.4        1          -0.3874
     15 H2          5.5454    -6.2085    91.9420 H          1           0.4289
     16 C11         6.9491    -6.7396    90.5726 C.3        1          -0.0083
     17 C12         7.1772    -8.2135    90.2622 C.3        1          -0.1596
     18 C13         6.2163    -8.8778    91.2639 C.3        1           0.1365
     19 C14         4.9889    -7.9677    91.0652 C.3        1          -0.0219
     20 N3          6.7300    -8.7956    92.6334 N.am       1          -0.7269
     21 C15         6.3425    -9.7007    93.5538 C.2        1           0.5767
     22 O2          5.5668   -10.5852    93.2476 O.2        1          -0.5103
     23 C16         6.8606    -9.6178    94.9354 C.ar       1          -0.1367
     24 C17         6.9530   -10.7695    95.7195 C.ar       1          -0.0707
     25 C18         7.4375   -10.6867    97.0077 C.ar       1          -0.1036
     26 C19         7.8320    -9.4641    97.5253 C.ar       1          -0.0009
     27 Cl1         8.4410    -9.3681    99.1481 Cl         1          -0.0203
     28 C20         7.7429    -8.3171    96.7524 C.ar       1          -0.0405
     29 Cl2         8.2396    -6.7888    97.4091 Cl         1          -0.0215
     30 C21         7.2648    -8.3889    95.4595 C.ar       1          -0.0336
     31 C22         2.3511    -5.8275    89.6340 C.ar       1          -0.0432
     32 C23         1.0376    -5.7368    90.0559 C.ar       1          -0.0647
     33 Cl3        -0.2568    -5.9294    88.9152 Cl         1          -0.0187
     34 H3         -2.8591    -1.4070    92.8123 H          1           0.1292
     35 H4         -4.4280    -2.2289    92.6352 H          1           0.1305
     36 H5         -3.9072    -1.6397    94.2321 H          1           0.1238
     37 H6         -1.3732    -2.1530    94.3373 H          1           0.1398
     38 H7         -2.0215    -3.3726    95.4764 H          1           0.1460
     39 H8          0.3061    -3.8680    94.1919 H          1           0.1223
     40 H9         -0.9046    -5.1852    94.3442 H          1           0.1153
     41 H10        -0.4035    -3.3195    91.9570 H          1           0.1164
     42 H11        -2.9428    -4.9244    92.1299 H          1           0.1498
     43 H12        -2.6819    -3.2884    91.4628 H          1           0.1499
     44 H13         1.5744    -5.1471    93.3418 H          1           0.1473
     45 H14         3.9096    -5.3196    92.5835 H          1           0.1454
     46 H15         4.8424    -6.2328    89.0892 H          1           0.1441
     47 H16         5.2557    -4.7881    90.0434 H          1           0.1437
     48 H17         7.1043    -6.1397    89.6759 H          1           0.1347
     49 H18         7.6287    -6.4131    91.3598 H          1           0.1361
     50 H19         6.8961    -8.4464    89.2352 H          1           0.1256
     51 H20         8.2099    -8.5010    90.4595 H          1           0.1047
     52 H21         5.9974    -9.9078    90.9825 H          1           0.1288
     53 H22         4.3014    -8.0632    91.9056 H          1           0.1399
     54 H23         4.4848    -8.2001    90.1271 H          1           0.1481
     55 H24         7.3489    -8.0900    92.8776 H          1           0.4083
     56 H25         6.6450   -11.7235    95.3176 H          1           0.1383
     57 H26         7.5092   -11.5772    97.6147 H          1           0.1549
     58 H27         7.1998    -7.4954    94.8562 H          1           0.1586
     59 H28         2.5719    -6.0179    88.5940 H          1           0.1549
@<TRIPOS>BOND
     1    1    2 1
     2    1   34 1
     3    1   35 1
     4    1   36 1
     5    2    3 1
     6    2    7 1
     7    2    4 1
     8    4    5 1
     9    4   37 1
    10    4   38 1
    11    5    6 1
    12    5   39 1
    13    5   40 1
    14    6    7 1
    15    6    8 1
    16    6   41 1
    17    7   42 1
    18    7   43 1
    19    8    9 1
    20    9   32 ar
    21    9   10 ar
    22   10   11 ar
    23   10   44 1
    24   11   12 ar
    25   11   45 1
    26   12   13 1
    27   12   31 ar
    28   13   14 1
    29   13   46 1
    30   13   47 1
    31   14   15 1
    32   14   19 1
    33   14   16 1
    34   16   17 1
    35   16   48 1
    36   16   49 1
    37   17   18 1
    38   17   50 1
    39   17   51 1
    40   18   19 1
    41   18   20 1
    42   18   52 1
    43   19   53 1
    44   19   54 1
    45   20   21 am
    46   20   55 1
    47   21   22 2
    48   21   23 1
    49   23   30 ar
    50   23   24 ar
    51   24   25 ar
    52   24   56 1
    53   25   26 ar
    54   25   57 1
    55   26   27 1
    56   26   28 ar
    57   28   29 1
    58   28   30 ar
    59   30   58 1
    60   31   32 ar
    61   31   59 1
    62   32   33 1
##########                 Name:              T528344
##########          Protonation:                   99
##########               SMILES:   C[C@@H](Cc1ccc(cc1)C(=O)OC(c2ccccc2)c3ccccc3)[NH2+]C[C@H](c4ccccc4)O
##########            Long Name:   yloxycarbonylphenyl)-1-methyl-ethyl]-[(2S)-2-hydroxy-2-phenyl-ethyl]ammonium
##########          FlexRecCode: 1
##########               Number:                  140
##########   Ligand Source File: /raidb/db2/rgc/tcams/tcams-0000443.db2.gz
##########           GlobalRank: 221
##########                 Rank:                    1
##########               Setnum:                  259
##########             Matchnum:                 3552
##########                Cloud:                    1
##########        Electrostatic:           -35.015877
##########        Van der Waals:           -30.579613
##########  Ligand Polar Desolv:             4.177194
########## Ligand Apolar Desolv:            -4.557468
##########      Internal Energy:             0.000000
##########      Receptor Energy: 0.0
########## Receptor Desolvation:             0.000000
########## Receptor Hydrophobic:             0.000000
##########         Total Energy: -65.98
##########        Ligand Charge:             1.000000
##########            Arbitrary:    +999.9990
##########     heavy atom count:   35
##########           pose count:    1
##########        Ligand Energy:             0.000000
# num electro vdwattr vdwrepu polsolv apolsol rdesolv rhydroe totalscore fullpol fullapo
#   1    4.38   -0.83    0.06   -2.48   -0.08    0.00    0.00       1.05   -5.91   -0.18
#   2   -0.62   -0.46    0.01    0.60   -0.07    0.00    0.00      -0.54    2.19   -0.24
#   3    2.47   -0.72    0.08   -0.97   -0.07    0.00    0.00       0.79   -3.10   -0.21
#   4    2.02   -1.27    0.31   -0.20   -0.09    0.00    0.00       0.76   -0.72   -0.33
#   5    1.61   -0.71    0.11   -0.55   -0.08    0.00    0.00       0.39   -2.75   -0.38
#   6    0.27   -0.58    0.07   -0.23   -0.09    0.00    0.00      -0.56   -1.19   -0.46
#   7    1.04   -0.93    0.12   -0.54   -0.11    0.00    0.00      -0.41   -2.09   -0.41
#   8    1.62   -2.81    2.00   -0.40   -0.16    0.00    0.00       0.25   -1.14   -0.45
#   9    4.46   -3.36    2.94   -0.86   -0.16    0.00    0.00       3.02   -2.41   -0.45
#  10   -1.58   -0.71    0.08    0.56   -0.03    0.00    0.00      -1.67    2.61   -0.16
#  11    1.04   -0.33    0.01   -0.15   -0.06    0.00    0.00       0.52   -1.01   -0.38
#  12    1.32   -0.89    0.16   -0.44    0.06    0.00    0.00       0.20   -1.77    0.23
#  13   -0.74   -0.37    0.02    0.15   -0.02    0.00    0.00      -0.96    0.75   -0.11
#  14    0.32   -0.97    0.14   -0.12   -0.09    0.00    0.00      -0.73   -0.47   -0.35
#  15    0.27   -1.48    0.82   -0.15   -0.11    0.00    0.00      -0.64   -0.59   -0.44
#  16    0.34   -1.88    0.74   -0.33   -0.18    0.00    0.00      -1.31   -0.86   -0.47
#  17    0.32   -2.28    0.61   -0.38   -0.23    0.00    0.00      -1.97   -0.78   -0.47
#  18    0.36   -2.42    0.84   -0.36   -0.23    0.00    0.00      -1.80   -0.73   -0.47
#  19    0.35   -1.86    0.59   -0.24   -0.18    0.00    0.00      -1.33   -0.60   -0.45
#  20    1.28   -0.74    0.08   -0.09   -0.08    0.00    0.00       0.45   -0.40   -0.35
#  21    0.97   -0.86    0.30   -0.10   -0.08    0.00    0.00       0.23   -0.52   -0.44
#  22    1.18   -0.73    0.11   -0.14   -0.10    0.00    0.00       0.31   -0.66   -0.47
#  23    2.27   -1.03    0.12   -0.19   -0.15    0.00    0.00       1.02   -0.60   -0.47
#  24    3.43   -1.39    0.17   -0.20   -0.19    0.00    0.00       1.82   -0.49   -0.47
#  25    2.34   -1.22    0.15   -0.14   -0.16    0.00    0.00       0.97   -0.40   -0.45
#  26   13.09   -0.67    0.04   -4.77    0.18    0.00    0.00       7.86  -16.87    0.62
#  27  -13.41   -0.01    0.00    2.31    0.07    0.00    0.00     -11.04   14.83    0.42
#  28  -13.39   -0.02    0.00    3.46    0.11    0.00    0.00      -9.84   16.53    0.53
#  29    0.69   -0.53    0.04   -0.17   -0.09    0.00    0.00      -0.06   -0.66   -0.36
#  30   -2.67   -0.64    0.06    1.14   -0.04    0.00    0.00      -2.16    3.73   -0.14
#  31   15.99   -1.40    0.21   -6.14    0.70    0.00    0.00       9.36  -14.35    1.64
#  32    1.80   -1.16    0.14   -0.74   -0.12    0.00    0.00      -0.09   -2.18   -0.35
#  33    1.53   -1.38    0.13   -0.84   -0.19    0.00    0.00      -0.75   -1.92   -0.44
#  34    1.46   -1.82    0.41   -1.02   -0.24    0.00    0.00      -1.20   -2.04   -0.47
#  35    0.87   -1.76    0.53   -0.75   -0.20    0.00    0.00      -1.31   -1.76   -0.47
#  36    0.73   -1.25    0.12   -0.70   -0.17    0.00    0.00      -1.27   -1.91   -0.47
#  37    0.74   -1.19    0.16   -0.60   -0.14    0.00    0.00      -1.03   -1.93   -0.45
#  38   -1.62   -0.25    0.02    0.87   -0.06    0.00    0.00      -1.04    3.04   -0.21
#  39   -2.28   -0.45    0.10    1.13   -0.10    0.00    0.00      -1.61    3.07   -0.28
#  40   -3.02   -0.27    0.03    0.73   -0.09    0.00    0.00      -2.63    2.20   -0.28
#  41   -1.96   -0.11    0.00    0.56   -0.03    0.00    0.00      -1.54    5.46   -0.28
#  42   -2.64   -0.17    0.01    0.68   -0.05    0.00    0.00      -2.18    3.72   -0.28
#  43   -3.02   -0.40    0.10    1.46   -0.09    0.00    0.00      -1.94    4.53   -0.28
#  44   -1.07   -0.08    0.00    0.51   -0.02    0.00    0.00      -0.67    5.99   -0.28
#  45   -0.28   -0.06    0.00    0.07   -0.01    0.00    0.00      -0.28    1.19   -0.26
#  46   -7.09   -1.18    1.94    0.58   -0.10    0.00    0.00      -5.85    1.60   -0.27
#  47   -8.23   -1.75    4.50    1.69   -0.11    0.00    0.00      -3.90    4.21   -0.28
#  48   -0.38   -0.05    0.00    0.00   -0.01    0.00    0.00      -0.44    0.08   -0.24
#  49   -0.33   -0.21    0.09    0.16   -0.04    0.00    0.00      -0.33    1.14   -0.27
#  50   -0.30   -0.34    0.07    0.42   -0.08    0.00    0.00      -0.23    1.42   -0.28
#  51   -0.33   -0.89    0.80    0.62   -0.15    0.00    0.00       0.04    1.17   -0.28
#  52   -0.38   -0.95    1.05    0.52   -0.15    0.00    0.00       0.10    1.00   -0.28
#  53   -0.47   -0.98    1.61    0.23   -0.09    0.00    0.00       0.30    0.68   -0.28
#  54   -0.46   -0.14    0.05    0.11   -0.03    0.00    0.00      -0.48    1.00   -0.27
#  55   -0.32   -0.10    0.01    0.13   -0.03    0.00    0.00      -0.31    1.22   -0.28
#  56   -2.57   -0.27    0.06    0.22   -0.06    0.00    0.00      -2.63    0.95   -0.28
#  57   -4.66   -0.51    0.15    0.31   -0.12    0.00    0.00      -4.83    0.73   -0.28
#  58   -3.87   -0.60    0.50    0.13   -0.09    0.00    0.00      -3.93    0.41   -0.28
#  59   -1.69   -0.19    0.01    1.14   -0.04    0.00    0.00      -0.76    5.94   -0.22
#  60   -0.83   -0.22    0.07    0.83   -0.04    0.00    0.00      -0.19    5.29   -0.28
#  61   -2.68   -0.19    0.02    0.67   -0.05    0.00    0.00      -2.23    3.78   -0.28
#  62  -15.61   -0.03    0.00    4.30    0.38    0.00    0.00     -10.96   11.38    1.01
#  63   -2.02   -0.33    0.07    1.29   -0.07    0.00    0.00      -1.06    4.30   -0.24
#  64   -2.35   -0.46    0.11    0.70   -0.13    0.00    0.00      -2.12    1.51   -0.28
#  65   -1.14   -0.42    0.19    0.22   -0.09    0.00    0.00      -1.23    0.70   -0.28
#  66   -0.83   -0.22    0.01    0.23   -0.06    0.00    0.00      -0.86    1.02   -0.28
#  67   -0.75   -0.19    0.02    0.48   -0.05    0.00    0.00      -0.48    2.90   -0.28

@<TRIPOS>MOLECULE
          T528344        99
   67    70     0     0     0



@<TRIPOS>ATOM
      1 C1          2.4762    -5.6180    95.9151 C.3        1          -0.1840
      2 C2          2.9087    -5.9741    94.4912 C.3        1           0.0296
      3 C3          2.3727    -4.9227    93.5175 C.3        1          -0.1044
      4 C4          2.7986    -5.2736    92.1151 C.ar       1          -0.0936
      5 C5          1.9906    -6.0778    91.3309 C.ar       1          -0.1520
      6 C6          2.3743    -6.4027    90.0463 C.ar       1          -0.0436
      7 C7          3.5810    -5.9183    89.5379 C.ar       1          -0.1043
      8 C8          4.3915    -5.1070    90.3348 C.ar       1          -0.0491
      9 C9          3.9930    -4.7853    91.6156 C.ar       1          -0.1158
     10 C10         3.9986    -6.2624    88.1633 C.2        1           0.5025
     11 O1          3.2917    -6.9685    87.4726 O.2        1          -0.4863
     12 O2          5.1635    -5.7932    87.6759 O.3        1          -0.3331
     13 C11         5.8341    -6.6020    86.7074 C.3        1           0.1814
     14 C12         5.3669    -6.2223    85.3258 C.ar       1          -0.0918
     15 C13         5.3392    -7.1708    84.3206 C.ar       1          -0.0910
     16 C14         4.9106    -6.8226    83.0534 C.ar       1          -0.1208
     17 C15         4.5094    -5.5258    82.7914 C.ar       1          -0.1090
     18 C16         4.5362    -4.5777    83.7968 C.ar       1          -0.1165
     19 C17         4.9607    -4.9269    85.0652 C.ar       1          -0.1027
     20 C18         7.3214    -6.3823    86.8126 C.ar       1          -0.1118
     21 C19         8.1955    -7.4010    86.4824 C.ar       1          -0.1000
     22 C20         9.5597    -7.1996    86.5789 C.ar       1          -0.1202
     23 C21        10.0497    -5.9793    87.0051 C.ar       1          -0.1102
     24 C22         9.1756    -4.9603    87.3344 C.ar       1          -0.1163
     25 C23         7.8115    -5.1604    87.2338 C.ar       1          -0.0983
     26 N1          4.3755    -6.0062    94.4187 N.4        1          -0.5073
     27 H1          4.6668    -5.9116    93.4573 H          1           0.4258
     28 H2          4.7559    -5.2456    94.9619 H          1           0.4294
     29 C24         4.8645    -7.2833    94.9550 C.3        1          -0.0463
     30 C25         6.3923    -7.3167    94.8794 C.3        1           0.1357
     31 O3          6.9146    -6.0334    95.2290 O.3        1          -0.5465
     32 C26         6.9202    -8.3523    95.8387 C.ar       1          -0.1427
     33 C27         7.2176    -7.9994    97.1417 C.ar       1          -0.1077
     34 C28         7.7019    -8.9492    98.0216 C.ar       1          -0.1113
     35 C29         7.8882   -10.2520    97.5986 C.ar       1          -0.0985
     36 C30         7.5899   -10.6051    96.2959 C.ar       1          -0.1117
     37 C31         7.1016    -9.6561    95.4171 C.ar       1          -0.1011
     38 H3          2.8581    -6.3669    96.6089 H          1           0.0832
     39 H4          2.8746    -4.6391    96.1815 H          1           0.0851
     40 H5          1.3878    -5.5942    95.9689 H          1           0.1095
     41 H6          2.5102    -6.9529    94.2247 H          1           0.1423
     42 H7          1.2844    -4.8989    93.5714 H          1           0.1265
     43 H8          2.7712    -3.9438    93.7840 H          1           0.1033
     44 H9          1.0575    -6.4522    91.7254 H          1           0.1341
     45 H10         1.7428    -7.0308    89.4354 H          1           0.1477
     46 H11         5.3263    -4.7292    89.9478 H          1           0.1482
     47 H12         4.6168    -4.1544    92.2314 H          1           0.1405
     48 H13         5.6080    -7.6522    86.8916 H          1           0.1016
     49 H14         5.6528    -8.1838    84.5252 H          1           0.1241
     50 H15         4.8897    -7.5634    82.2678 H          1           0.1260
     51 H16         4.1752    -5.2537    81.8012 H          1           0.1264
     52 H17         4.2230    -3.5645    83.5921 H          1           0.1283
     53 H18         4.9781    -4.1870    85.8517 H          1           0.1245
     54 H19         7.8127    -8.3545    86.1495 H          1           0.1224
     55 H20        10.2426    -7.9957    86.3216 H          1           0.1252
     56 H21        11.1156    -5.8221    87.0811 H          1           0.1262
     57 H22         9.5584    -4.0070    87.6676 H          1           0.1278
     58 H23         7.1286    -4.3630    87.4874 H          1           0.1238
     59 H24         4.5499    -7.3856    95.9936 H          1           0.1400
     60 H25         4.4537    -8.1049    94.3683 H          1           0.1441
     61 H26         6.7004    -7.5704    93.8652 H          1           0.1291
     62 H27         6.6160    -5.3168    94.6523 H          1           0.3881
     63 H28         7.0721    -6.9815    97.4723 H          1           0.1219
     64 H29         7.9350    -8.6734    99.0395 H          1           0.1318
     65 H30         8.2672   -10.9939    98.2859 H          1           0.1321
     66 H31         7.7357   -11.6228    95.9652 H          1           0.1323
     67 H32         6.8651    -9.9328    94.4003 H          1           0.1272
@<TRIPOS>BOND
     1    1    2 1
     2    1   38 1
     3    1   39 1
     4    1   40 1
     5    2    3 1
     6    2   26 1
     7    2   41 1
     8    3    4 1
     9    3   42 1
    10    3   43 1
    11    4    9 ar
    12    4    5 ar
    13    5    6 ar
    14    5   44 1
    15    6    7 ar
    16    6   45 1
    17    7    8 ar
    18    7   10 1
    19    8    9 ar
    20    8   46 1
    21    9   47 1
    22   10   11 2
    23   10   12 1
    24   12   13 1
    25   13   14 1
    26   13   20 1
    27   13   48 1
    28   14   19 ar
    29   14   15 ar
    30   15   16 ar
    31   15   49 1
    32   16   17 ar
    33   16   50 1
    34   17   18 ar
    35   17   51 1
    36   18   19 ar
    37   18   52 1
    38   19   53 1
    39   20   25 ar
    40   20   21 ar
    41   21   22 ar
    42   21   54 1
    43   22   23 ar
    44   22   55 1
    45   23   24 ar
    46   23   56 1
    47   24   25 ar
    48   24   57 1
    49   25   58 1
    50   26   27 1
    51   26   28 1
    52   26   29 1
    53   29   30 1
    54   29   59 1
    55   29   60 1
    56   30   31 1
    57   30   32 1
    58   30   61 1
    59   31   62 1
    60   32   37 ar
    61   32   33 ar
    62   33   34 ar
    63   33   63 1
    64   34   35 ar
    65   34   64 1
    66   35   36 ar
    67   35   65 1
    68   36   37 ar
    69   36   66 1
    70   37   67 1
##########                 Name:              T540128
##########          Protonation:                   11
##########               SMILES:   c1ccc2c(c1)c(nc(n2)c3cccc(c3)Cl)Nc4cc[nH+]c(c4)c5ccc(cc5)C[NH+]6CCOCC6
##########            Long Name:   -[4-(morpholin-4-ium-4-ylmethyl)phenyl]pyridin-1-ium-4-yl]quinazolin-4-amine
##########          FlexRecCode: 1
##########               Number:                  168
##########   Ligand Source File: /raidb/db2/rgc/tcams/tcams-0001986.db2.gz
##########           GlobalRank: 221
##########                 Rank:                    1
##########               Setnum:                  138
##########             Matchnum:                 3746
##########                Cloud:                    1
##########        Electrostatic:           -54.153633
##########        Van der Waals:           -26.521463
##########  Ligand Polar Desolv:            18.347380
########## Ligand Apolar Desolv:            -3.649350
##########      Internal Energy:             0.000000
##########      Receptor Energy: 0.0
########## Receptor Desolvation:             0.000000
########## Receptor Hydrophobic:             0.000000
##########         Total Energy: -65.98
##########        Ligand Charge:             2.000000
##########            Arbitrary:    +999.9990
##########     heavy atom count:   37
##########           pose count:    1
##########        Ligand Energy:             0.000000
# num electro vdwattr vdwrepu polsolv apolsol rdesolv rhydroe totalscore fullpol fullapo
#   1    0.82   -2.33    0.36   -0.41   -0.39    0.00    0.00      -1.96   -1.06   -0.99
#   2    0.42   -1.13    0.11   -0.32   -0.10    0.00    0.00      -1.03   -0.93   -0.30
#   3    0.43   -1.13    0.25   -0.33   -0.12    0.00    0.00      -0.92   -1.18   -0.44
#   4    0.19   -1.32    0.31   -0.25   -0.12    0.00    0.00      -1.18   -0.88   -0.41
#   5    0.37   -1.28    0.15   -0.21   -0.15    0.00    0.00      -1.11   -0.62   -0.44
#   6    0.77   -1.56    0.26   -0.69   -0.18    0.00    0.00      -1.40   -1.82   -0.47
#   7    0.73   -1.61    0.27   -0.66   -0.18    0.00    0.00      -1.45   -1.66   -0.46
#   8   -1.53   -1.10    0.32    1.22   -0.49    0.00    0.00      -1.57    5.30   -2.11
#   9    1.43   -1.61    0.79   -1.65    0.47    0.00    0.00      -0.56   -6.16    1.77
#  10   -0.72   -0.86    0.22    0.27   -0.15    0.00    0.00      -1.24    1.28   -0.73
#  11    0.65   -1.25    0.41   -0.52   -0.11    0.00    0.00      -0.82   -2.12   -0.47
#  12    0.15   -0.60    0.13   -0.17   -0.08    0.00    0.00      -0.56   -1.04   -0.47
#  13    0.07   -0.17    0.00   -0.19   -0.03    0.00    0.00      -0.32   -2.71   -0.47
#  14    0.12   -0.14    0.00   -0.06   -0.03    0.00    0.00      -0.10   -0.88   -0.45
#  15    0.47   -0.31    0.02   -0.41   -0.04    0.00    0.00      -0.27   -3.76   -0.40
#  16   -2.39   -0.28    0.01    1.24   -0.23    0.00    0.00      -1.65   10.80   -2.00
#  17    4.76   -0.17    0.00   -1.25    0.07    0.00    0.00       3.41  -17.64    1.02
#  18   -3.97   -0.27    0.01    0.85   -0.07    0.00    0.00      -3.45    8.10   -0.67
#  19    2.54   -0.50    0.03   -1.13   -0.07    0.00    0.00       0.87   -6.49   -0.41
#  20   -4.54   -1.62    0.54    2.31   -0.28    0.00    0.00      -3.59    8.04   -0.97
#  21   14.29   -1.86    0.72   -5.31    0.28    0.00    0.00       8.12  -17.57    0.94
#  22  -17.42   -0.06    0.00    7.26    0.16    0.00    0.00     -10.06   20.41    0.45
#  23   -4.60   -0.65    0.06    2.01   -0.16    0.00    0.00      -3.34    9.57   -0.74
#  24    2.13   -0.33    0.01   -0.67   -0.05    0.00    0.00       1.10   -5.33   -0.44
#  25    1.17   -0.58    0.03   -0.73   -0.08    0.00    0.00      -0.20   -3.54   -0.41
#  26    1.56   -0.70    0.04   -0.88   -0.11    0.00    0.00      -0.08   -3.68   -0.44
#  27    1.84   -0.70    0.02   -1.20   -0.10    0.00    0.00      -0.14   -4.45   -0.36
#  28    2.26   -0.69    0.02   -1.05   -0.09    0.00    0.00       0.45   -3.88   -0.33
#  29   -1.01   -1.05    0.33    0.70   -0.13    0.00    0.00      -1.16    1.92   -0.36
#  30   10.57   -1.42    0.39   -6.29    0.12    0.00    0.00       3.38  -15.19    0.28
#  31  -10.78   -0.03    0.00    4.68    0.12    0.00    0.00      -6.00   20.25    0.54
#  32    1.15   -1.09    0.13   -0.39   -0.16    0.00    0.00      -0.36   -0.86   -0.36
#  33   -0.86   -1.21    0.12    0.27   -0.08    0.00    0.00      -1.76    0.49   -0.14
#  34    8.46   -1.67    0.14   -8.62    0.93    0.00    0.00      -0.76  -12.94    1.40
#  35   -0.86   -1.96    0.70    0.21   -0.08    0.00    0.00      -2.00    0.35   -0.14
#  36    1.32   -3.11    3.15   -0.21   -0.21    0.00    0.00       0.94   -0.41   -0.40
#  37    0.90   -0.55    0.02   -0.84   -0.09    0.00    0.00      -0.56   -4.13   -0.45
#  38    0.85   -0.49    0.03   -0.75   -0.08    0.00    0.00      -0.44   -4.38   -0.44
#  39    4.07   -0.52    0.04   -1.95    0.21    0.00    0.00       1.85  -10.83    1.17
#  40   -1.64   -0.14    0.01    0.04   -0.03    0.00    0.00      -1.76    0.35   -0.26
#  41   -0.86   -0.21    0.01    1.26   -0.06    0.00    0.00       0.15    5.87   -0.26
#  42   -1.03   -0.35    0.09    1.45   -0.07    0.00    0.00       0.09    5.52   -0.28
#  43   -1.70   -0.39    0.09    0.73   -0.09    0.00    0.00      -1.37    2.20   -0.28
#  44   -2.21   -0.68    0.69    0.19   -0.09    0.00    0.00      -2.09    0.60   -0.28
#  45   -0.20   -0.17    0.06    0.24   -0.03    0.00    0.00      -0.10    2.20   -0.28
#  46   -0.09   -0.02    0.00    0.07   -0.01    0.00    0.00      -0.04    3.91   -0.28
#  47   -0.18   -0.01    0.00    0.13    0.00    0.00    0.00      -0.06    6.46   -0.23
#  48   -2.64    0.00    0.00    0.41    0.01    0.00    0.00      -2.22   14.99    0.48
#  49   -3.08   -0.07    0.00    0.27   -0.01    0.00    0.00      -2.89    4.18   -0.22
#  50   -7.66   -0.63    0.41    3.51   -0.09    0.00    0.00      -4.44   11.53   -0.28
#  51   -1.28   -0.07    0.00    0.60   -0.01    0.00    0.00      -0.76    8.73   -0.21
#  52   -4.57   -0.17    0.02    0.96   -0.03    0.00    0.00      -3.80    6.38   -0.21
#  53   -3.60   -0.17    0.01    1.15   -0.05    0.00    0.00      -2.66    7.03   -0.28
#  54   -4.85   -0.50    0.36    2.67   -0.09    0.00    0.00      -2.41    8.27   -0.28
#  55   -4.68   -0.41    0.15    2.28   -0.09    0.00    0.00      -2.76    6.98   -0.28
#  56   -3.44   -0.69    0.50    2.31   -0.11    0.00    0.00      -1.43    5.92   -0.28
#  57   -2.46   -0.34    0.07    2.11   -0.06    0.00    0.00      -0.68    7.58   -0.21
#  58   -3.31   -0.57    0.11    1.53   -0.14    0.00    0.00      -2.38    3.04   -0.28
#  59   -1.72   -0.37    0.08    1.05   -0.09    0.00    0.00      -1.05    3.17   -0.28
#  60   -3.56   -0.98    0.77    1.53   -0.17    0.00    0.00      -2.41    2.55   -0.28
#  61   -2.03   -0.87    1.18    1.37   -0.12    0.00    0.00      -0.47    3.15   -0.28
#  62   -6.59   -2.24    5.62    4.48   -0.15    0.00    0.00       1.12    8.17   -0.28
#  63   -4.58   -1.42    2.60    2.78   -0.14    0.00    0.00      -0.77    5.46   -0.28
#  64   -1.36   -0.12    0.01    0.84   -0.03    0.00    0.00      -0.66    7.48   -0.28
#  65   -0.63   -0.07    0.00    0.50   -0.01    0.00    0.00      -0.21    7.08   -0.21

@<TRIPOS>MOLECULE
          T540128        11
   65    70     0     0     0



@<TRIPOS>ATOM
      1 Cl1         5.3841    -6.7357    96.4531 Cl         1          -0.0461
      2 C1          6.1082    -8.2773    96.1170 C.ar       1          -0.0408
      3 C2          6.0572    -8.7994    94.8391 C.ar       1          -0.0558
      4 C3          6.6390   -10.0370    94.5714 C.ar       1          -0.0443
      5 C4          7.2697   -10.7413    95.5961 C.ar       1          -0.0755
      6 C5          7.3149   -10.2105    96.8690 C.ar       1          -0.1168
      7 C6          6.7409    -8.9789    97.1288 C.ar       1          -0.0809
      8 C7          6.5871   -10.6031    93.2019 C.ar       1           0.4029
      9 N1          6.5641   -11.9153    93.0604 N.ar       1          -0.4948
     10 C8          6.5173   -12.4652    91.8398 C.ar       1           0.1902
     11 C9          6.4911   -13.8547    91.6531 C.ar       1          -0.0925
     12 C10         6.4431   -14.3631    90.3892 C.ar       1          -0.0649
     13 C11         6.4195   -13.5241    89.2787 C.ar       1          -0.0980
     14 C12         6.4438   -12.1678    89.4245 C.ar       1          -0.0934
     15 C13         6.4931   -11.6131    90.7077 C.ar       1          -0.1711
     16 C14         6.5196   -10.2123    90.9199 C.ar       1           0.4378
     17 N2          6.4975    -9.3346    89.8547 N.pl3      1          -0.6216
     18 C15         5.9159    -8.0763    90.0005 C.ar       1           0.3060
     19 C16         6.3726    -6.9872    89.2570 C.ar       1          -0.1405
     20 C17         5.7734    -5.7558    89.4262 C.ar       1           0.1636
     21 N3          4.7793    -5.5961    90.2777 N.ar       1          -0.4740
     22 H1          4.3779    -4.7184    90.3750 H          1           0.4439
     23 C18         4.3126    -6.6038    91.0050 C.ar       1           0.2246
     24 C19         4.8614    -7.8763    90.8871 C.ar       1          -0.1638
     25 C20         3.1917    -6.3716    91.9488 C.ar       1          -0.0659
     26 C21         3.4522    -5.9925    93.2642 C.ar       1          -0.0677
     27 C22         2.4055    -5.7779    94.1379 C.ar       1          -0.0871
     28 C23         1.0997    -5.9388    93.7098 C.ar       1          -0.1207
     29 C24        -0.0388    -5.7029    94.6685 C.3        1           0.0351
     30 N4         -1.0783    -4.9035    94.0070 N.4        1          -0.3848
     31 H2         -1.4184    -5.3986    93.1964 H          1           0.4226
     32 C25        -0.5132    -3.6124    93.5913 C.3        1          -0.0504
     33 C26        -1.5984    -2.7814    92.9020 C.3        1           0.0368
     34 O1         -2.7002    -2.6087    93.7974 O.3        1          -0.3525
     35 C27        -3.2703    -3.8399    94.2502 C.3        1           0.0350
     36 C28        -2.1883    -4.6730    94.9419 C.3        1          -0.0445
     37 C29         0.8356    -6.3149    92.4055 C.ar       1          -0.0805
     38 C30         1.8743    -6.5261    91.5215 C.ar       1          -0.0905
     39 N5          6.5605    -9.7665    92.1664 N.ar       1          -0.5651
     40 H3          5.5670    -8.2496    94.0491 H          1           0.1516
     41 H4          7.7218   -11.7010    95.3941 H          1           0.1308
     42 H5          7.8033   -10.7555    97.6631 H          1           0.1390
     43 H6          6.7826    -8.5654    98.1256 H          1           0.1429
     44 H7          6.5093   -14.5180    92.5053 H          1           0.1533
     45 H8          6.4234   -15.4336    90.2472 H          1           0.1477
     46 H9          6.3818   -13.9525    88.2881 H          1           0.1425
     47 H10         6.4248   -11.5271    88.5553 H          1           0.1282
     48 H11         6.8866    -9.5935    89.0046 H          1           0.4407
     49 H12         7.1863    -7.1067    88.5571 H          1           0.1975
     50 H13         6.1241    -4.9103    88.8530 H          1           0.2184
     51 H14         4.4777    -8.6958    91.4768 H          1           0.1839
     52 H15         4.4711    -5.8673    93.5995 H          1           0.1516
     53 H16         2.6063    -5.4841    95.1576 H          1           0.1515
     54 H17        -0.4580    -6.6605    94.9774 H          1           0.1477
     55 H18         0.3286    -5.1680    95.5445 H          1           0.1459
     56 H19        -0.1467    -3.0769    94.4670 H          1           0.1427
     57 H20         0.3102    -3.7822    92.8977 H          1           0.1371
     58 H21        -1.1931    -1.8064    92.6311 H          1           0.1432
     59 H22        -1.9368    -3.2980    92.0037 H          1           0.0806
     60 H23        -4.0751    -3.6311    94.9548 H          1           0.1467
     61 H24        -3.6659    -4.3927    93.3980 H          1           0.0826
     62 H25        -2.6083    -5.6302    95.2507 H          1           0.1466
     63 H26        -1.8213    -4.1372    95.8173 H          1           0.1433
     64 H27        -0.1857    -6.4391    92.0767 H          1           0.1509
     65 H28         1.6666    -6.8150    90.5018 H          1           0.1391
@<TRIPOS>BOND
     1    1    2 1
     2    2    7 ar
     3    2    3 ar
     4    3    4 ar
     5    3   40 1
     6    4    5 ar
     7    4    8 1
     8    5    6 ar
     9    5   41 1
    10    6    7 ar
    11    6   42 1
    12    7   43 1
    13    8   39 ar
    14    8    9 ar
    15    9   10 ar
    16   10   15 ar
    17   10   11 ar
    18   11   12 ar
    19   11   44 1
    20   12   13 ar
    21   12   45 1
    22   13   14 ar
    23   13   46 1
    24   14   15 ar
    25   14   47 1
    26   15   16 ar
    27   16   17 1
    28   16   39 ar
    29   17   18 1
    30   17   48 1
    31   18   24 ar
    32   18   19 ar
    33   19   20 ar
    34   19   49 1
    35   20   21 ar
    36   20   50 1
    37   21   22 1
    38   21   23 ar
    39   23   24 ar
    40   23   25 1
    41   24   51 1
    42   25   38 ar
    43   25   26 ar
    44   26   27 ar
    45   26   52 1
    46   27   28 ar
    47   27   53 1
    48   28   29 1
    49   28   37 ar
    50   29   30 1
    51   29   54 1
    52   29   55 1
    53   30   31 1
    54   30   36 1
    55   30   32 1
    56   32   33 1
    57   32   56 1
    58   32   57 1
    59   33   34 1
    60   33   58 1
    61   33   59 1
    62   34   35 1
    63   35   36 1
    64   35   60 1
    65   35   61 1
    66   36   62 1
    67   36   63 1
    68   37   38 ar
    69   37   64 1
    70   38   65 1
##########                 Name:              T533133
##########          Protonation:                   13
##########               SMILES:   Cc1cccc2c1[nH]c(n2)c3cccc(c3)c4cccc(c4)C[NH+]5CCC[C@@H]5C[NH3+]
##########            Long Name:   -benzimidazol-2-yl)phenyl]phenyl]methyl]pyrrolidin-1-ium-2-yl]methylammonium
##########          FlexRecCode: 1
##########               Number:                  255
##########   Ligand Source File: /raidb/db2/rgc/tcams/tcams-0001043.db2.gz
##########           GlobalRank: 222
##########                 Rank:                    1
##########               Setnum:                   26
##########             Matchnum:                 3208
##########                Cloud:                    1
##########        Electrostatic:           -59.255322
##########        Van der Waals:           -23.869576
##########  Ligand Polar Desolv:            20.616831
########## Ligand Apolar Desolv:            -3.459722
##########      Internal Energy:             0.000000
##########      Receptor Energy: 0.0
########## Receptor Desolvation:             0.000000
########## Receptor Hydrophobic:             0.000000
##########         Total Energy: -65.97
##########        Ligand Charge:             2.000000
##########            Arbitrary:    +999.9990
##########     heavy atom count:   30
##########           pose count:    1
##########        Ligand Energy:             0.000000
# num electro vdwattr vdwrepu polsolv apolsol rdesolv rhydroe totalscore fullpol fullapo
#   1    2.16   -1.61    0.34   -0.64   -0.11    0.00    0.00       0.13   -1.13   -0.20
#   2    1.27   -1.87    0.29   -0.33   -0.22    0.00    0.00      -0.87   -0.62   -0.41
#   3   -0.71   -1.40    0.17   -0.02   -0.30    0.00    0.00      -2.25   -0.04   -0.75
#   4    5.89   -1.54    0.41   -1.55    0.39    0.00    0.00       3.60   -4.50    1.14
#   5   -2.31   -1.25    0.28    0.65   -0.64    0.00    0.00      -3.27    2.16   -2.13
#   6    2.91   -1.24    0.20   -0.54    0.64    0.00    0.00       1.97   -1.74    2.04
#   7   -0.45   -1.26    0.13   -0.08   -0.29    0.00    0.00      -1.96   -0.23   -0.79
#   8    0.76   -1.61    0.24   -0.26   -0.20    0.00    0.00      -1.07   -0.62   -0.47
#   9    1.62   -2.58    0.77   -0.40   -0.25    0.00    0.00      -0.84   -0.75   -0.47
#  10    1.56   -2.64    0.56   -0.56   -0.26    0.00    0.00      -1.34   -0.97   -0.45
#  11    0.05   -1.05    0.25   -0.33   -0.11    0.00    0.00      -1.18   -1.24   -0.41
#  12    0.85   -1.18    0.15   -0.70   -0.15    0.00    0.00      -1.03   -2.11   -0.46
#  13    1.38   -1.54    0.52   -0.77   -0.14    0.00    0.00      -0.55   -2.52   -0.47
#  14    0.63   -0.57    0.04   -0.27   -0.09    0.00    0.00      -0.26   -1.36   -0.44
#  15    0.42   -0.43    0.04   -0.13   -0.06    0.00    0.00      -0.16   -0.90   -0.41
#  16    0.44   -0.96    0.41   -0.33   -0.08    0.00    0.00      -0.51   -1.68   -0.42
#  17    0.10   -0.22    0.01   -0.22   -0.04    0.00    0.00      -0.37   -2.58   -0.41
#  18    0.21   -0.10    0.00   -0.15   -0.02    0.00    0.00      -0.07   -3.51   -0.44
#  19    0.26   -0.09    0.00   -0.20   -0.02    0.00    0.00      -0.05   -4.33   -0.47
#  20    0.44   -0.16    0.00   -0.17   -0.03    0.00    0.00       0.08   -2.35   -0.40
#  21    1.47   -0.23    0.00   -0.32   -0.03    0.00    0.00       0.89   -3.75   -0.34
#  22   -0.47   -0.29    0.01    0.31   -0.05    0.00    0.00      -0.48    1.91   -0.28
#  23    6.81   -0.47    0.02   -4.35    0.10    0.00    0.00       2.12  -18.72    0.43
#  24   -5.78   -0.01    0.00    2.64    0.06    0.00    0.00      -3.09   24.12    0.56
#  25    0.38   -0.86    0.10   -0.18   -0.15    0.00    0.00      -0.71   -0.46   -0.39
#  26    3.70   -1.31    0.42   -2.90   -0.12    0.00    0.00      -0.21   -7.11   -0.29
#  27    1.75   -1.00    0.38   -2.38   -0.07    0.00    0.00      -1.33   -7.77   -0.23
#  28    0.06   -0.43    0.03    0.35   -0.07    0.00    0.00      -0.06    1.62   -0.34
#  29    1.02   -1.27    0.56   -0.63   -0.10    0.00    0.00      -0.42   -2.14   -0.35
#  30   21.54   -1.80    1.19  -11.02    0.25    0.00    0.00      10.16  -37.88    0.86
#  31  -22.23   -0.09    0.01    7.79    0.17    0.00    0.00     -14.35   28.06    0.60
#  32  -14.41   -0.04    0.00    7.94    0.15    0.00    0.00      -6.35   26.66    0.52
#  33   -9.55   -0.01    0.00    3.02    0.06    0.00    0.00      -6.48   28.21    0.59
#  34    0.82   -0.35    0.03   -0.25   -0.05    0.00    0.00       0.20   -1.99   -0.42
#  35   -1.06   -0.36    0.06    0.39   -0.12    0.00    0.00      -1.09    0.93   -0.28
#  36   -1.27   -0.75    0.36    0.52   -0.16    0.00    0.00      -1.30    0.93   -0.28
#  37   -1.70   -0.80    0.50    0.53   -0.15    0.00    0.00      -1.61    1.00   -0.28
#  38   -4.38   -0.02    0.00    1.26    0.13    0.00    0.00      -3.02    5.35    0.53
#  39   -1.41   -0.26    0.02    0.16   -0.08    0.00    0.00      -1.56    0.57   -0.28
#  40   -2.09   -0.73    0.27    0.79   -0.15    0.00    0.00      -1.91    1.52   -0.28
#  41   -2.85   -0.82    0.26    1.04   -0.17    0.00    0.00      -2.55    1.71   -0.28
#  42   -1.46   -0.30    0.05    0.57   -0.06    0.00    0.00      -1.20    2.10   -0.24
#  43   -3.52   -1.23    2.69    1.64   -0.10    0.00    0.00      -0.53    4.81   -0.28
#  44   -0.63   -0.08    0.00    0.68   -0.02    0.00    0.00      -0.05    8.56   -0.21
#  45   -1.64   -0.22    0.09    0.05   -0.03    0.00    0.00      -1.76    0.32   -0.20
#  46   -0.26   -0.02    0.00   -0.01    0.00    0.00    0.00      -0.29   -0.26   -0.22
#  47   -0.20   -0.01    0.00    0.03   -0.01    0.00    0.00      -0.19    1.39   -0.28
#  48   -0.45   -0.06    0.00    0.47   -0.02    0.00    0.00      -0.05    7.51   -0.24
#  49   -2.74   -0.16    0.01    2.34   -0.04    0.00    0.00      -0.57   14.22   -0.22
#  50   -1.47   -0.07    0.00    0.70   -0.01    0.00    0.00      -0.86   11.50   -0.22
#  51   -4.84   -0.52    0.30    2.48   -0.07    0.00    0.00      -2.66    7.00   -0.21
#  52   -4.55   -0.29    0.04    1.09   -0.09    0.00    0.00      -3.81    3.50   -0.28
#  53   -5.56   -1.27    2.16    0.72   -0.12    0.00    0.00      -4.07    1.65   -0.28
#  54   -2.39   -0.35    0.09    0.69   -0.09    0.00    0.00      -2.05    2.21   -0.28
#  55   -1.97   -0.95    2.28    2.09   -0.08    0.00    0.00       1.37    7.06   -0.26
#  56   -0.54   -0.16    0.01    0.85   -0.04    0.00    0.00       0.12    5.83   -0.28
#  57   -1.85   -0.05    0.00    0.66   -0.01    0.00    0.00      -1.25   12.86   -0.28
#  58   -4.43   -0.22    0.03    2.59   -0.04    0.00    0.00      -2.07   13.00   -0.22
#  59   -6.98   -1.21    1.82    3.92   -0.08    0.00    0.00      -2.53   10.82   -0.23
#  60   -1.59   -0.19    0.05    1.37   -0.03    0.00    0.00      -0.39    9.66   -0.22

@<TRIPOS>MOLECULE
          T533133        13
   60    64     0     0     0



@<TRIPOS>ATOM
      1 C1          9.4183    -8.9740    98.9788 C.3        1          -0.1165
      2 C2          8.1122    -8.5949    98.3297 C.ar       1          -0.0797
      3 C3          7.7812    -9.1027    97.0809 C.ar       1           0.0610
      4 N1          8.4111    -9.9537    96.1941 N.pl3      1          -0.5906
      5 C4          7.5873   -10.0904    95.1097 C.2        1           0.3022
      6 N2          6.5018    -9.3775    95.2845 N.2        1          -0.4715
      7 C5          6.5606    -8.7444    96.4813 C.ar       1           0.0491
      8 C6          5.6930    -7.8775    97.1537 C.ar       1          -0.0681
      9 C7          6.0365    -7.3880    98.3816 C.ar       1          -0.1162
     10 C8          7.2382    -7.7467    98.9762 C.ar       1          -0.0927
     11 C9          7.8788   -10.9183    93.9189 C.ar       1          -0.0075
     12 C10         8.0751   -12.2939    94.0540 C.ar       1          -0.0885
     13 C11         8.3475   -13.0667    92.9432 C.ar       1          -0.1093
     14 C12         8.4278   -12.4850    91.6928 C.ar       1          -0.0964
     15 C13         8.2338   -11.1123    91.5450 C.ar       1          -0.0706
     16 C14         7.9526   -10.3280    92.6590 C.ar       1          -0.0563
     17 C15         8.3211   -10.4899    90.2007 C.ar       1          -0.0176
     18 C16         7.9702   -11.2210    89.0675 C.ar       1          -0.0700
     19 C17         8.0532   -10.6373    87.8198 C.ar       1          -0.1011
     20 C18         8.4845    -9.3285    87.6930 C.ar       1          -0.0966
     21 C19         8.8342    -8.5988    88.8141 C.ar       1          -0.1686
     22 C20         9.3024    -7.1739    88.6678 C.3        1           0.0323
     23 N3          8.4200    -6.4618    87.7340 N.4        1          -0.3831
     24 H1          8.4260    -6.8984    86.8244 H          1           0.4393
     25 C21         8.7816    -5.0392    87.6423 C.3        1          -0.0130
     26 C22         7.5955    -4.4651    86.8785 C.3        1          -0.1373
     27 C23         6.4131    -5.2972    87.3634 C.3        1          -0.1624
     28 C24         7.0451    -6.3624    88.2693 C.3        1          -0.0033
     29 C25         7.0613    -5.8954    89.7263 C.3        1          -0.0314
     30 N4          5.6832    -5.8071    90.2275 N.4        1          -0.6323
     31 H2          5.6886    -5.4225    91.1603 H          1           0.4573
     32 H3          5.1422    -5.2095    89.6206 H          1           0.4419
     33 H4          5.2723    -6.7283    90.2459 H          1           0.4454
     34 C26         8.7487    -9.1708    90.0675 C.ar       1          -0.0921
     35 H5          9.9692    -9.6463    98.3210 H          1           0.0743
     36 H6         10.0093    -8.0758    99.1577 H          1           0.0572
     37 H7          9.2211    -9.4741    99.9270 H          1           0.0782
     38 H8          9.2758   -10.3757    96.3170 H          1           0.4227
     39 H9          4.7532    -7.5953    96.7025 H          1           0.1320
     40 H10         5.3638    -6.7188    98.8975 H          1           0.1361
     41 H11         7.4927    -7.3549    99.9499 H          1           0.1364
     42 H12         8.0139   -12.7542    95.0291 H          1           0.1290
     43 H13         8.4990   -14.1305    93.0521 H          1           0.1375
     44 H14         8.6416   -13.0949    90.8276 H          1           0.1240
     45 H15         7.7972    -9.2650    92.5484 H          1           0.1451
     46 H16         7.6339   -12.2427    89.1655 H          1           0.1453
     47 H17         7.7816   -11.2030    86.9409 H          1           0.1434
     48 H18         8.5488    -8.8763    86.7143 H          1           0.1301
     49 H19         9.2763    -6.6813    89.6398 H          1           0.1385
     50 H20        10.3223    -7.1644    88.2830 H          1           0.1406
     51 H21         8.8611    -4.5921    88.6330 H          1           0.1390
     52 H22         9.7073    -4.9071    87.0822 H          1           0.1472
     53 H23         7.4520    -3.4135    87.1267 H          1           0.1296
     54 H24         7.7354    -4.5871    85.8044 H          1           0.1088
     55 H25         5.7167    -4.6779    87.9289 H          1           0.1086
     56 H26         5.9055    -5.7668    86.5209 H          1           0.1268
     57 H27         6.5223    -7.3140    88.1735 H          1           0.1617
     58 H28         7.6225    -6.6084    90.3302 H          1           0.1601
     59 H29         7.5340    -4.9153    89.7885 H          1           0.1587
     60 H30         9.0177    -8.5983    90.9428 H          1           0.1329
@<TRIPOS>BOND
     1    1    2 1
     2    1   35 1
     3    1   36 1
     4    1   37 1
     5    2   10 ar
     6    2    3 ar
     7    3    7 ar
     8    3    4 1
     9    4    5 1
    10    4   38 1
    11    5    6 2
    12    5   11 1
    13    6    7 1
    14    7    8 ar
    15    8    9 ar
    16    8   39 1
    17    9   10 ar
    18    9   40 1
    19   10   41 1
    20   11   16 ar
    21   11   12 ar
    22   12   13 ar
    23   12   42 1
    24   13   14 ar
    25   13   43 1
    26   14   15 ar
    27   14   44 1
    28   15   16 ar
    29   15   17 1
    30   16   45 1
    31   17   34 ar
    32   17   18 ar
    33   18   19 ar
    34   18   46 1
    35   19   20 ar
    36   19   47 1
    37   20   21 ar
    38   20   48 1
    39   21   22 1
    40   21   34 ar
    41   22   23 1
    42   22   49 1
    43   22   50 1
    44   23   24 1
    45   23   28 1
    46   23   25 1
    47   25   26 1
    48   25   51 1
    49   25   52 1
    50   26   27 1
    51   26   53 1
    52   26   54 1
    53   27   28 1
    54   27   55 1
    55   27   56 1
    56   28   29 1
    57   28   57 1
    58   29   30 1
    59   29   58 1
    60   29   59 1
    61   30   31 1
    62   30   32 1
    63   30   33 1
    64   34   60 1
##########                 Name:              T535529
##########          Protonation:                   84
##########               SMILES:   @@H](C(=O)N(C3=O)c4ccc(cc4)Br)[C@]5([NH2+]2)c6ccccc6N(C5=O)Cc7ccc(c(c7)Cl)Cl
##########            Long Name:   [1,2,3a,6a-tetrahydropyrrolo[3,4-c]pyrrol-2-ium-3,3'-indoline]-2',4,6-trione
##########          FlexRecCode: 1
##########               Number:                  300
##########   Ligand Source File: /raidb/db2/rgc/tcams/tcams-0001388.db2.gz
##########           GlobalRank: 225
##########                 Rank:                    1
##########               Setnum:                  110
##########             Matchnum:                 1472
##########                Cloud:                    1
##########        Electrostatic:           -36.341660
##########        Van der Waals:           -31.944992
##########  Ligand Polar Desolv:             6.552754
########## Ligand Apolar Desolv:            -4.221628
##########      Internal Energy:             0.000000
##########      Receptor Energy: 0.0
########## Receptor Desolvation:             0.000000
########## Receptor Hydrophobic:             0.000000
##########         Total Energy: -65.96
##########        Ligand Charge:             1.000000
##########            Arbitrary:    +999.9990
##########     heavy atom count:   47
##########           pose count:    1
##########        Ligand Energy:             0.000000
# num electro vdwattr vdwrepu polsolv apolsol rdesolv rhydroe totalscore fullpol fullapo
#   1    0.64   -0.17    0.00   -0.18   -0.02    0.00    0.00       0.28   -1.88   -0.17
#   2   -0.62   -0.37    0.02    0.22   -0.02    0.00    0.00      -0.77    1.01   -0.07
#   3    4.00   -0.76    0.11   -0.75   -0.05    0.00    0.00       2.56   -2.20   -0.16
#   4    0.35   -0.59    0.13   -0.28   -0.04    0.00    0.00      -0.44   -1.22   -0.18
#   5    3.52   -0.70    0.09   -0.76    0.21    0.00    0.00       2.35   -3.11    0.87
#   6   -2.29   -0.60    0.05    0.21   -0.06    0.00    0.00      -2.70    0.93   -0.29
#   7    4.90   -0.98    0.08   -1.25   -0.09    0.00    0.00       2.66   -3.78   -0.27
#   8    1.52   -1.59    0.51   -0.48   -0.14    0.00    0.00      -0.18   -1.55   -0.45
#   9    2.76   -0.67    0.06   -0.65   -0.07    0.00    0.00       1.43   -3.13   -0.35
#  10    1.31   -0.54    0.06   -0.56   -0.05    0.00    0.00       0.22   -2.35   -0.20
#  11   -1.51   -0.93    0.33    0.52   -0.06    0.00    0.00      -1.65    2.00   -0.22
#  12   14.79   -1.28    0.39   -4.48    0.19    0.00    0.00       9.62  -15.29    0.64
#  13  -16.57   -0.03    0.00    3.80    0.13    0.00    0.00     -12.67   16.44    0.56
#  14  -14.02   -0.04    0.00    5.94    0.18    0.00    0.00      -7.94   17.89    0.54
#  15   -1.37   -0.32    0.01    0.68   -0.02    0.00    0.00      -1.01    3.72   -0.11
#  16    1.24   -0.26    0.01   -0.40   -0.04    0.00    0.00       0.56   -2.71   -0.24
#  17    2.43   -0.30    0.02   -0.43   -0.04    0.00    0.00       1.68   -2.60   -0.23
#  18  -11.70   -0.75    0.09    2.66   -0.12    0.00    0.00      -9.83   11.59   -0.54
#  19   11.40   -1.50    0.47   -2.44    0.12    0.00    0.00       8.04   -8.59    0.41
#  20    7.63   -0.67    0.05   -2.21    0.25    0.00    0.00       5.05   -9.79    1.11
#  21   -4.17   -0.81    0.17    1.98   -0.08    0.00    0.00      -2.91   10.16   -0.41
#  22   -0.35   -1.66    1.20   -1.60    0.10    0.00    0.00      -2.31   -6.73    0.41
#  23   -1.48   -0.87    0.08    0.46   -0.15    0.00    0.00      -1.96    1.64   -0.53
#  24    1.47   -0.99    0.06   -0.44   -0.16    0.00    0.00      -0.06   -1.26   -0.46
#  25    1.14   -1.71    0.36   -0.41   -0.20    0.00    0.00      -0.82   -0.93   -0.46
#  26    0.96   -1.64    0.22   -0.44   -0.14    0.00    0.00      -1.04   -0.92   -0.30
#  27    0.39   -9.44    5.49   -0.34   -0.65    0.00    0.00      -4.55   -0.56   -1.09
#  28    0.86   -1.26    0.11   -0.37   -0.17    0.00    0.00      -0.83   -1.00   -0.46
#  29    0.95   -1.08    0.12   -0.36   -0.14    0.00    0.00      -0.52   -1.16   -0.46
#  30   -3.15   -0.44    0.03    2.13   -0.10    0.00    0.00      -1.52   13.04   -0.59
#  31    1.75   -0.31    0.01   -1.65    0.07    0.00    0.00      -0.13  -10.51    0.42
#  32    1.25   -0.46    0.04   -1.77    0.23    0.00    0.00      -0.72  -11.42    1.46
#  33   -0.22   -0.29    0.01    0.49   -0.07    0.00    0.00      -0.08    2.94   -0.44
#  34    0.18   -0.37    0.01   -0.21   -0.06    0.00    0.00      -0.45   -1.31   -0.38
#  35    0.14   -0.82    0.13   -0.25   -0.12    0.00    0.00      -0.92   -0.97   -0.45
#  36    0.19   -1.44    1.00   -0.30   -0.11    0.00    0.00      -0.67   -1.20   -0.46
#  37    0.03   -0.72    0.20   -0.09   -0.05    0.00    0.00      -0.64   -0.50   -0.30
#  38    0.04   -1.10    0.23   -0.09   -0.18    0.00    0.00      -1.10   -0.49   -0.95
#  39    0.04   -0.36    0.02   -0.08   -0.05    0.00    0.00      -0.43   -0.56   -0.30
#  40    0.03   -1.08    0.37   -0.09   -0.16    0.00    0.00      -0.93   -0.53   -0.95
#  41    0.11   -0.26    0.01   -0.10   -0.05    0.00    0.00      -0.30   -0.94   -0.45
#  42   -1.37   -0.53    0.03    0.64   -0.14    0.00    0.00      -1.37    3.39   -0.72
#  43    1.51   -0.92    0.18   -0.71   -0.12    0.00    0.00      -0.06   -2.70   -0.45
#  44    0.83   -1.36    0.40   -0.42   -0.15    0.00    0.00      -0.70   -1.32   -0.47
#  45    2.75   -0.97    0.09   -0.87   -0.15    0.00    0.00       0.86   -2.74   -0.47
#  46    0.87   -0.60    0.02   -0.24   -0.09    0.00    0.00      -0.05   -1.03   -0.38
#  47    2.81   -0.51    0.02   -0.85   -0.04    0.00    0.00       1.42   -4.54   -0.24
#  48    0.95   -0.26    0.01   -0.16   -0.05    0.00    0.00       0.48   -1.51   -0.44
#  49    1.34   -0.30    0.01   -0.37   -0.05    0.00    0.00       0.62   -3.19   -0.46
#  50   -0.14   -0.03    0.00    0.03   -0.01    0.00    0.00      -0.14    0.96   -0.17
#  51   -0.22   -0.05    0.00    0.01   -0.01    0.00    0.00      -0.27    0.24   -0.28
#  52   -0.67   -0.05    0.00    0.04   -0.01    0.00    0.00      -0.69    0.96   -0.27
#  53   -2.55   -0.62    0.56    0.33   -0.09    0.00    0.00      -2.38    0.98   -0.27
#  54   -1.57   -0.21    0.02    0.12   -0.06    0.00    0.00      -1.70    0.54   -0.28
#  55   -1.23   -0.20    0.02    0.37   -0.04    0.00    0.00      -1.08    1.51   -0.15
#  56   -0.30   -0.63    0.79    0.07   -0.08    0.00    0.00      -0.15    0.25   -0.28
#  57   -0.14   -0.11    0.01    0.05   -0.03    0.00    0.00      -0.22    0.44   -0.28
#  58   -0.18   -0.11    0.01    0.09   -0.03    0.00    0.00      -0.22    0.87   -0.28
#  59   -4.85   -0.26    0.02    0.58   -0.04    0.00    0.00      -4.55    1.80   -0.13
#  60   -5.53   -1.31    3.87    1.25   -0.10    0.00    0.00      -1.83    3.40   -0.28
#  61   -1.38   -0.33    0.08    1.78   -0.07    0.00    0.00       0.07    6.48   -0.27
#  62   -1.05   -0.06    0.00    0.26   -0.02    0.00    0.00      -0.87    4.10   -0.28
#  63   -7.10   -1.03    1.95    1.45   -0.06    0.00    0.00      -4.79    5.32   -0.21
#  64   -0.65   -0.07    0.00    0.45   -0.02    0.00    0.00      -0.29    6.17   -0.27
#  65   -2.31   -0.05    0.00    0.39   -0.01    0.00    0.00      -1.98    8.83   -0.27
#  66   -2.89   -0.16    0.01    0.25   -0.04    0.00    0.00      -2.83    1.69   -0.28
#  67   -2.60   -0.62    0.32    0.46   -0.12    0.00    0.00      -2.56    1.05   -0.28
#  68   -1.61   -0.23    0.02    0.45   -0.06    0.00    0.00      -1.43    2.03   -0.28
#  69   -1.20   -0.20    0.03    0.60   -0.04    0.00    0.00      -0.82    3.55   -0.26
#  70   -0.14   -0.15    0.01    0.47   -0.04    0.00    0.00       0.16    3.06   -0.26
#  71   -0.16   -0.07    0.00    0.22   -0.02    0.00    0.00      -0.02    3.19   -0.27
#  72   -0.21   -0.23    0.05    0.87   -0.08    0.00    0.00       0.40    3.20   -0.28
#  73   -0.30   -0.52    0.54    0.50   -0.08    0.00    0.00       0.13    1.74   -0.28
#  74   -0.17   -0.03    0.00    0.09   -0.01    0.00    0.00      -0.12    2.45   -0.25
#  75   -1.80   -0.28    0.11    0.50   -0.05    0.00    0.00      -1.52    2.58   -0.24
#  76   -5.17   -0.68    0.86    0.78   -0.10    0.00    0.00      -4.31    2.28   -0.28
#  77   -4.43   -0.32    0.10    0.77   -0.07    0.00    0.00      -3.95    2.91   -0.28
#  78   -2.41   -0.11    0.00    0.38   -0.02    0.00    0.00      -2.15    4.02   -0.17
#  79   -0.93   -0.03    0.00    0.21   -0.01    0.00    0.00      -0.76    6.46   -0.28
#  80   -0.70   -0.04    0.00    0.07   -0.01    0.00    0.00      -0.68    1.62   -0.28

@<TRIPOS>MOLECULE
          T535529        84
   80    86     0     0     0



@<TRIPOS>ATOM
      1 C1         10.7673    -8.2440    88.1689 C.3        1          -0.2001
      2 C2         10.8713    -7.0638    87.2008 C.3        1           0.1080
      3 C3         11.0649    -5.7695    87.9936 C.3        1          -0.2034
      4 C4         12.0653    -7.2734    86.2673 C.3        1          -0.1423
      5 O1          9.6725    -6.9744    86.4282 O.3        1          -0.3001
      6 C5          8.5118    -6.7865    87.1097 C.ar       1           0.1597
      7 C6          8.0615    -5.5010    87.3738 C.ar       1          -0.2143
      8 C7          6.8810    -5.3126    88.0662 C.ar       1          -0.0628
      9 C8          6.1489    -6.4038    88.4965 C.ar       1          -0.1738
     10 C9          4.8619    -6.1954    89.2523 C.3        1          -0.0843
     11 C10         5.1567    -6.1250    90.7518 C.3        1           0.0501
     12 N1          4.0172    -5.5258    91.4787 N.4        1          -0.4918
     13 H1          4.2748    -5.2959    92.4268 H          1           0.4449
     14 H2          3.6671    -4.7132    90.9936 H          1           0.4395
     15 C11         3.0338    -6.6219    91.4512 C.3        1           0.0973
     16 C12         3.8413    -7.8754    91.8004 C.3        1          -0.1211
     17 C13         5.2646    -7.5348    91.3479 C.3        1          -0.1342
     18 C14         6.0320    -7.4736    92.6371 C.2        1           0.5306
     19 O2          7.2116    -7.2093    92.7277 O.2        1          -0.4228
     20 N2          5.2318    -7.7511    93.6699 N.am       1          -0.5184
     21 C15         3.9748    -7.9979    93.2921 C.2        1           0.5394
     22 O3          3.0691    -8.2809    94.0466 O.2        1          -0.4137
     23 C16         5.6638    -7.7798    95.0037 C.ar       1           0.1096
     24 C17         5.0903    -6.9289    95.9387 C.ar       1          -0.0871
     25 C18         5.5175    -6.9591    97.2518 C.ar       1          -0.0744
     26 C19         6.5161    -7.8365    97.6356 C.ar       1          -0.0725
     27 Br1         7.0982    -7.8756    99.4343 Br         1          -0.0220
     28 C20         7.0893    -8.6856    96.7056 C.ar       1          -0.0768
     29 C21         6.6616    -8.6632    95.3925 C.ar       1          -0.0907
     30 C22         2.3512    -6.7365    90.1164 C.2        1           0.5321
     31 O4          2.8972    -6.9304    89.0509 O.2        1          -0.4396
     32 N3          1.0304    -6.5869    90.3110 N.am       1          -0.5259
     33 C23         0.0301    -6.6353    89.2418 C.3        1           0.1515
     34 C24        -0.9413    -7.7552    89.5130 C.ar       1          -0.1171
     35 C25        -2.2991    -7.5445    89.3591 C.ar       1          -0.0789
     36 C26        -3.1910    -8.5705    89.6075 C.ar       1          -0.0972
     37 C27        -2.7253    -9.8095    90.0100 C.ar       1          -0.0165
     38 Cl1        -3.8452   -11.0989    90.3217 Cl         1          -0.0315
     39 C28        -1.3658   -10.0206    90.1637 C.ar       1          -0.0319
     40 Cl2        -0.7798   -11.5750    90.6682 Cl         1          -0.0334
     41 C29        -0.4740    -8.9937    89.9100 C.ar       1          -0.0755
     42 C30         0.7294    -6.3801    91.6581 C.ar       1           0.1863
     43 C31        -0.4902    -6.1813    92.3004 C.ar       1          -0.1208
     44 C32        -0.5314    -5.9965    93.6668 C.ar       1          -0.0360
     45 C33         0.6368    -6.0082    94.4070 C.ar       1          -0.1193
     46 C34         1.8514    -6.2052    93.7755 C.ar       1          -0.0489
     47 C35         1.8978    -6.3897    92.4093 C.ar       1          -0.2164
     48 C36         6.5954    -7.6858    88.2342 C.ar       1          -0.0909
     49 C37         7.7725    -7.8795    87.5375 C.ar       1          -0.1486
     50 H3         10.6293    -9.1661    87.6041 H          1           0.0775
     51 H4         11.6819    -8.3121    88.7581 H          1           0.0726
     52 H5          9.9169    -8.0946    88.8340 H          1           0.0785
     53 H6         11.1391    -4.9287    87.3040 H          1           0.0793
     54 H7         10.2141    -5.6202    88.6586 H          1           0.0695
     55 H8         11.9791    -5.8378    88.5830 H          1           0.0804
     56 H9         12.1393    -6.4327    85.5776 H          1           0.0706
     57 H10        12.9796    -7.3416    86.8567 H          1           0.0689
     58 H11        11.9274    -8.1955    85.7026 H          1           0.0836
     59 H12         8.6333    -4.6485    87.0384 H          1           0.1588
     60 H13         6.5299    -4.3123    88.2721 H          1           0.1324
     61 H14         4.3975    -5.2638    88.9291 H          1           0.1073
     62 H15         4.1852    -7.0266    89.0536 H          1           0.1325
     63 H16         6.0702    -5.5596    90.9361 H          1           0.1537
     64 H17         3.4420    -8.7773    91.3364 H          1           0.1773
     65 H18         5.6734    -8.2604    90.6448 H          1           0.1817
     66 H19         4.3110    -6.2436    95.6396 H          1           0.1379
     67 H20         5.0719    -6.2971    97.9795 H          1           0.1483
     68 H21         7.8689    -9.3693    97.0075 H          1           0.1477
     69 H22         7.1059    -9.3296    94.6680 H          1           0.1328
     70 H23        -0.5083    -5.6883    89.2049 H          1           0.1142
     71 H24         0.5267    -6.8083    88.2870 H          1           0.1183
     72 H25        -2.6630    -6.5773    89.0448 H          1           0.1424
     73 H26        -4.2514    -8.4050    89.4877 H          1           0.1490
     74 H27         0.5870    -9.1588    90.0256 H          1           0.1408
     75 H28        -1.4057    -6.1712    91.7274 H          1           0.1430
     76 H29        -1.4796    -5.8419    94.1605 H          1           0.1514
     77 H30         0.6006    -5.8640    95.4767 H          1           0.1476
     78 H31         2.7643    -6.2140    94.3524 H          1           0.1241
     79 H32         6.0216    -8.5365    88.5711 H          1           0.1257
     80 H33         8.1189    -8.8812    87.3296 H          1           0.1380
@<TRIPOS>BOND
     1    1    2 1
     2    1   50 1
     3    1   51 1
     4    1   52 1
     5    2    3 1
     6    2    4 1
     7    2    5 1
     8    3   53 1
     9    3   54 1
    10    3   55 1
    11    4   56 1
    12    4   57 1
    13    4   58 1
    14    5    6 1
    15    6   49 ar
    16    6    7 ar
    17    7    8 ar
    18    7   59 1
    19    8    9 ar
    20    8   60 1
    21    9   10 1
    22    9   48 ar
    23   10   11 1
    24   10   61 1
    25   10   62 1
    26   11   17 1
    27   11   12 1
    28   11   63 1
    29   12   13 1
    30   12   14 1
    31   12   15 1
    32   15   47 1
    33   15   16 1
    34   15   30 1
    35   16   21 1
    36   16   17 1
    37   16   64 1
    38   17   18 1
    39   17   65 1
    40   18   19 2
    41   18   20 am
    42   20   21 am
    43   20   23 1
    44   21   22 2
    45   23   29 ar
    46   23   24 ar
    47   24   25 ar
    48   24   66 1
    49   25   26 ar
    50   25   67 1
    51   26   27 1
    52   26   28 ar
    53   28   29 ar
    54   28   68 1
    55   29   69 1
    56   30   31 2
    57   30   32 am
    58   32   33 1
    59   32   42 1
    60   33   34 1
    61   33   70 1
    62   33   71 1
    63   34   41 ar
    64   34   35 ar
    65   35   36 ar
    66   35   72 1
    67   36   37 ar
    68   36   73 1
    69   37   38 1
    70   37   39 ar
    71   39   40 1
    72   39   41 ar
    73   41   74 1
    74   42   47 ar
    75   42   43 ar
    76   43   44 ar
    77   43   75 1
    78   44   45 ar
    79   44   76 1
    80   45   46 ar
    81   45   77 1
    82   46   47 ar
    83   46   78 1
    84   48   49 ar
    85   48   79 1
    86   49   80 1
##########                 Name:              T537033
##########          Protonation:                   73
##########               SMILES:   CC(C)C[C@@H](C(=O)Nc1ccc(cc1)OC)Nc2cc[nH+]/c(=N\c3ccccc3)/[nH]2
##########            Long Name:   l)-4-methyl-2-[[(2Z)-2-phenylimino-1H-pyrimidin-3-ium-6-yl]amino]pentanamide
##########          FlexRecCode: 1
##########               Number:                  173
##########   Ligand Source File: /raidb/db2/rgc/tcams/tcams-0001584.db2.gz
##########           GlobalRank: 225
##########                 Rank:                    1
##########               Setnum:                  173
##########             Matchnum:                 3296
##########                Cloud:                    1
##########        Electrostatic:           -43.611252
##########        Van der Waals:           -27.666548
##########  Ligand Polar Desolv:             9.656910
########## Ligand Apolar Desolv:            -4.342633
##########      Internal Energy:             0.000000
##########      Receptor Energy: 0.0
########## Receptor Desolvation:             0.000000
########## Receptor Hydrophobic:             0.000000
##########         Total Energy: -65.96
##########        Ligand Charge:             1.000000
##########            Arbitrary:    +999.9990
##########     heavy atom count:   30
##########           pose count:    1
##########        Ligand Energy:             0.000000
# num electro vdwattr vdwrepu polsolv apolsol rdesolv rhydroe totalscore fullpol fullapo
#   1   -0.33   -1.54    0.55    0.05    0.02    0.00    0.00      -1.26    0.09    0.03
#   2    2.69   -1.85    0.89   -0.64    0.47    0.00    0.00       1.56   -1.27    0.93
#   3   -1.09   -1.45    0.22    0.08   -0.12    0.00    0.00      -2.36    0.20   -0.31
#   4    0.50   -1.91    0.46   -0.51   -0.16    0.00    0.00      -1.61   -1.34   -0.42
#   5    0.20   -1.81    0.86   -0.27   -0.13    0.00    0.00      -1.15   -0.85   -0.40
#   6   -1.02   -1.08    0.15    0.36   -0.20    0.00    0.00      -1.79    1.22   -0.68
#   7   11.62   -0.82    0.07   -2.75    0.43    0.00    0.00       8.54  -10.49    1.63
#   8   -5.95   -0.70    0.08    1.83   -0.12    0.00    0.00      -4.87    8.54   -0.58
#   9   -1.19   -2.32    2.60   -1.77    0.08    0.00    0.00      -2.60   -7.55    0.33
#  10   -1.83   -0.36    0.02    0.54   -0.04    0.00    0.00      -1.66    2.86   -0.20
#  11    2.44   -0.34    0.02   -0.43   -0.03    0.00    0.00       1.67   -2.57   -0.18
#  12    0.83   -0.17    0.00   -0.16   -0.02    0.00    0.00       0.48   -1.56   -0.19
#  13    0.40   -0.17    0.01   -0.26   -0.02    0.00    0.00      -0.04   -2.67   -0.18
#  14    1.21   -0.10    0.00   -0.20   -0.01    0.00    0.00       0.90   -3.17   -0.17
#  15   21.98   -1.55    0.65   -4.28    0.31    0.00    0.00      17.12  -15.58    1.13
#  16  -16.75   -1.18    0.15    4.32   -0.64    0.00    0.00     -14.10   13.63   -2.03
#  17   10.15   -1.54    0.18   -3.53   -0.19    0.00    0.00       5.07   -8.40   -0.46
#  18   -8.10   -3.31    2.38    4.06   -0.46    0.00    0.00      -5.42    8.58   -0.97
#  19   14.55   -2.40    0.95   -5.97    0.40    0.00    0.00       7.53  -13.91    0.93
#  20  -11.07   -0.06    0.01    4.12    0.16    0.00    0.00      -6.84   10.49    0.41
#  21  -11.38   -1.37    0.24    4.20   -1.62    0.00    0.00      -9.94   12.02   -4.64
#  22   12.01   -1.19    0.22   -3.82    0.30    0.00    0.00       7.53  -13.13    1.04
#  23    8.94   -1.23    0.16   -3.32    0.75    0.00    0.00       5.30   -9.04    2.05
#  24   -1.70   -1.44    0.12    0.67   -0.28    0.00    0.00      -2.63    1.41   -0.58
#  25    4.46   -2.38    0.90   -1.17   -0.18    0.00    0.00       1.62   -2.42   -0.37
#  26    2.34   -3.22    1.26   -0.77   -0.28    0.00    0.00      -0.68   -1.27   -0.47
#  27    2.68   -3.05    0.77   -1.18   -0.32    0.00    0.00      -1.10   -1.76   -0.47
#  28    2.22   -3.33    1.14   -0.79   -0.32    0.00    0.00      -1.08   -1.16   -0.47
#  29    2.35   -2.45    0.48   -0.93   -0.27    0.00    0.00      -0.82   -1.64   -0.47
#  30    1.44   -2.14    1.10   -0.34   -0.16    0.00    0.00      -0.10   -0.96   -0.46
#  31    1.74   -1.75    0.48   -0.45   -0.18    0.00    0.00      -0.17   -1.11   -0.46
#  32   -0.67   -0.70    0.61    0.31   -0.14    0.00    0.00      -0.59    0.57   -0.26
#  33   -1.42   -0.36    0.07    0.40   -0.12    0.00    0.00      -1.43    0.94   -0.28
#  34   -1.10   -0.55    0.19    0.24   -0.12    0.00    0.00      -1.34    0.53   -0.27
#  35    0.20   -0.64    0.23    0.39   -0.08    0.00    0.00       0.10    1.02   -0.22
#  36    0.52   -0.91    1.48    0.32   -0.06    0.00    0.00       1.36    1.26   -0.22
#  37  -11.11   -0.02    0.00    1.90    0.12    0.00    0.00      -9.12    8.88    0.54
#  38   -1.55   -0.07    0.00    0.28   -0.01    0.00    0.00      -1.35    4.23   -0.18
#  39   -1.90   -0.11    0.01    0.21   -0.03    0.00    0.00      -1.82    2.09   -0.28
#  40   -2.79   -0.16    0.02    0.37   -0.04    0.00    0.00      -2.60    2.52   -0.25
#  41   -0.49   -0.07    0.00    0.17   -0.02    0.00    0.00      -0.40    2.50   -0.26
#  42   -0.02   -0.05    0.00    0.04   -0.02    0.00    0.00      -0.05    0.64   -0.28
#  43   -0.11   -0.08    0.01    0.04   -0.02    0.00    0.00      -0.16    0.46   -0.28
#  44   -0.23   -0.03    0.00    0.03   -0.01    0.00    0.00      -0.23    0.94   -0.28
#  45   -0.18   -0.02    0.00    0.05   -0.01    0.00    0.00      -0.16    1.81   -0.23
#  46   -0.52   -0.03    0.00    0.02   -0.01    0.00    0.00      -0.54    0.46   -0.28
#  47   -0.69   -0.04    0.00    0.04   -0.01    0.00    0.00      -0.70    1.04   -0.28
#  48  -24.26   -0.11    0.03    3.46    0.16    0.00    0.00     -20.72   12.39    0.58
#  49   -6.68   -0.31    0.03    2.61   -0.09    0.00    0.00      -4.44    7.90   -0.28
#  50   -5.64   -1.97    5.81    4.67   -0.13    0.00    0.00       2.74    9.85   -0.28
#  51   -6.73   -0.01    0.00    1.65    0.08    0.00    0.00      -5.02    9.63    0.46
#  52   -4.43   -0.75    0.67    1.13   -0.11    0.00    0.00      -3.48    2.96   -0.28
#  53   -3.45   -1.63    4.54    1.45   -0.17    0.00    0.00       0.73    2.34   -0.28
#  54   -3.23   -0.91    0.40    0.87   -0.17    0.00    0.00      -3.03    1.45   -0.28
#  55   -3.22   -1.14    0.89    0.69   -0.16    0.00    0.00      -2.94    1.18   -0.28
#  56   -3.06   -0.79    0.32    0.46   -0.14    0.00    0.00      -3.22    0.90   -0.28
#  57   -2.93   -0.73    0.58    0.90   -0.10    0.00    0.00      -2.27    2.64   -0.28
#  58   -2.29   -0.45    0.16    0.28   -0.09    0.00    0.00      -2.40    0.88   -0.28

@<TRIPOS>MOLECULE
          T537033        73
   58    60     0     0     0



@<TRIPOS>ATOM
      1 C1          9.1401   -10.2380    98.9513 C.3        1           0.0247
      2 O1          8.1541   -10.8335    98.1055 O.3        1          -0.3125
      3 C2          7.6826   -10.0764    97.0792 C.ar       1           0.1300
      4 C3          6.7199   -10.5911    96.2233 C.ar       1          -0.1911
      5 C4          6.2406    -9.8226    95.1808 C.ar       1          -0.0739
      6 C5          6.7222    -8.5345    94.9897 C.ar       1           0.0865
      7 N1          6.2359    -7.7541    93.9325 N.am       1          -0.6514
      8 C6          4.9745    -7.9280    93.4913 C.2        1           0.4877
      9 O2          4.2599    -8.7600    94.0095 O.2        1          -0.5028
     10 C7          4.4515    -7.0887    92.3542 C.3        1           0.0947
     11 C8          5.3129    -7.3202    91.1111 C.3        1          -0.1247
     12 C9          5.2583    -8.7986    90.7207 C.3        1          -0.0969
     13 C10         3.8112    -9.1933    90.4192 C.3        1          -0.1534
     14 C11         6.1196    -9.0299    89.4775 C.3        1          -0.1582
     15 N2          4.5038    -5.6731    92.7278 N.pl3      1          -0.6329
     16 C12         3.4310    -5.0881    93.3502 C.2        1           0.5716
     17 C13         3.5668    -4.5264    94.6089 C.2        1          -0.3267
     18 C14         2.4615    -3.9406    95.2135 C.2        1           0.2927
     19 N3          1.2963    -3.9199    94.5953 N.pl3      1          -0.5893
     20 H1          0.5335    -3.5073    95.0297 H          1           0.4537
     21 C15         1.1469    -4.4571    93.3806 C.2        1           0.5616
     22 N4          2.2098    -5.0442    92.7362 N.pl3      1          -0.5911
     23 N5         -0.0383    -4.4189    92.7888 N.2        1          -0.5063
     24 C16        -1.0660    -3.7260    93.3621 C.ar       1           0.0741
     25 C17        -1.9242    -4.3611    94.2645 C.ar       1          -0.1693
     26 C18        -2.9595    -3.6547    94.8398 C.ar       1          -0.0940
     27 C19        -3.1499    -2.3204    94.5259 C.ar       1          -0.1114
     28 C20        -2.3048    -1.6849    93.6330 C.ar       1          -0.0939
     29 C21        -1.2615    -2.3765    93.0541 C.ar       1          -0.1003
     30 C22         7.6854    -8.0198    95.8472 C.ar       1          -0.0919
     31 C23         8.1603    -8.7875    96.8921 C.ar       1          -0.1306
     32 H2          9.4295   -10.9470    99.7269 H          1           0.0575
     33 H3         10.0147    -9.9716    98.3579 H          1           0.1062
     34 H4          8.7281    -9.3412    99.4140 H          1           0.0575
     35 H5          6.3454   -11.5931    96.3720 H          1           0.1344
     36 H6          5.4916   -10.2237    94.5141 H          1           0.1306
     37 H7          6.8073    -7.0888    93.5183 H          1           0.4149
     38 H8          3.4205    -7.3698    92.1393 H          1           0.1269
     39 H9          4.9344    -6.7130    90.2886 H          1           0.0950
     40 H10         6.3438    -7.0390    91.3258 H          1           0.1044
     41 H11         5.6367    -9.4057    91.5430 H          1           0.0743
     42 H12         3.7722   -10.2464    90.1411 H          1           0.0628
     43 H13         3.1974    -9.0284    91.3047 H          1           0.0655
     44 H14         3.4328    -8.5861    89.5967 H          1           0.0611
     45 H15         6.0807   -10.0832    89.1994 H          1           0.0448
     46 H16         5.7412    -8.4228    88.6552 H          1           0.0690
     47 H17         7.1506    -8.7488    89.6924 H          1           0.0661
     48 H18         5.2972    -5.1496    92.5350 H          1           0.4491
     49 H19         4.5209    -4.5438    95.1146 H          1           0.1985
     50 H20         2.5567    -3.5000    96.1949 H          1           0.2154
     51 H21         2.0933    -5.4284    91.8532 H          1           0.4480
     52 H22        -1.7770    -5.4023    94.5102 H          1           0.1233
     53 H23        -3.6236    -4.1441    95.5369 H          1           0.1349
     54 H24        -3.9624    -1.7724    94.9796 H          1           0.1351
     55 H25        -2.4598    -0.6435    93.3927 H          1           0.1376
     56 H26        -0.6001    -1.8781    92.3610 H          1           0.1338
     57 H27         8.0605    -7.0179    95.6991 H          1           0.1370
     58 H28         8.9066    -8.3859    97.5615 H          1           0.1419
@<TRIPOS>BOND
     1    1    2 1
     2    1   32 1
     3    1   33 1
     4    1   34 1
     5    2    3 1
     6    3   31 ar
     7    3    4 ar
     8    4    5 ar
     9    4   35 1
    10    5    6 ar
    11    5   36 1
    12    6    7 1
    13    6   30 ar
    14    7    8 am
    15    7   37 1
    16    8    9 2
    17    8   10 1
    18   10   11 1
    19   10   15 1
    20   10   38 1
    21   11   12 1
    22   11   39 1
    23   11   40 1
    24   12   13 1
    25   12   14 1
    26   12   41 1
    27   13   42 1
    28   13   43 1
    29   13   44 1
    30   14   45 1
    31   14   46 1
    32   14   47 1
    33   15   16 1
    34   15   48 1
    35   16   22 1
    36   16   17 2
    37   17   18 1
    38   17   49 1
    39   18   19 2
    40   18   50 1
    41   19   20 1
    42   19   21 1
    43   21   22 1
    44   21   23 2
    45   22   51 1
    46   23   24 1
    47   24   29 ar
    48   24   25 ar
    49   25   26 ar
    50   25   52 1
    51   26   27 ar
    52   26   53 1
    53   27   28 ar
    54   27   54 1
    55   28   29 ar
    56   28   55 1
    57   29   56 1
    58   30   31 ar
    59   30   57 1
    60   31   58 1
##########                 Name:              T539501
##########          Protonation:                   98
##########               SMILES:   COc1ccc(cc1)Oc2c(cccc2)C[NH2+]C[C@H]3CC[NH+](CC3)CC4CCCCC4
##########            Long Name:   hyl)piperidin-1-ium-4-yl]methyl-[[2-(4-methoxyphenoxy)phenyl]methyl]ammonium
##########          FlexRecCode: 1
##########               Number:                  246
##########   Ligand Source File: /raidb/db2/rgc/tcams/tcams-0001892.db2.gz
##########           GlobalRank: 225
##########                 Rank:                    1
##########               Setnum:                  265
##########             Matchnum:                 1306
##########                Cloud:                    1
##########        Electrostatic:           -59.089237
##########        Van der Waals:           -22.116920
##########  Ligand Polar Desolv:            18.478550
########## Ligand Apolar Desolv:            -3.235000
##########      Internal Energy:             0.000000
##########      Receptor Energy: 0.0
########## Receptor Desolvation:             0.000000
########## Receptor Hydrophobic:             0.000000
##########         Total Energy: -65.96
##########        Ligand Charge:             2.000000
##########            Arbitrary:    +999.9990
##########     heavy atom count:   31
##########           pose count:    1
##########        Ligand Energy:             0.000000
# num electro vdwattr vdwrepu polsolv apolsol rdesolv rhydroe totalscore fullpol fullapo
#   1   -0.19   -1.04    0.20    0.12    0.01    0.00    0.00      -0.89    0.26    0.03
#   2    2.14   -1.03    0.08   -1.92    0.35    0.00    0.00      -0.39   -5.09    0.93
#   3   -1.27   -1.29    0.13    0.38   -0.11    0.00    0.00      -2.16    1.06   -0.31
#   4    1.22   -1.31    0.32   -1.33   -0.13    0.00    0.00      -1.24   -4.28   -0.42
#   5    0.82   -0.94    0.11   -0.55   -0.13    0.00    0.00      -0.71   -1.90   -0.46
#   6   -0.25   -1.13    0.10    0.74   -0.08    0.00    0.00      -0.62    1.93   -0.22
#   7    6.47   -1.38    0.27   -2.65    0.18    0.00    0.00       2.88   -6.58    0.44
#   8   -3.33   -1.21    0.10    1.63   -0.12    0.00    0.00      -2.93    4.18   -0.31
#   9    3.72   -1.47    0.17   -2.64   -0.19    0.00    0.00      -0.42   -5.75   -0.42
#  10    0.97   -1.59    0.31   -1.31   -0.22    0.00    0.00      -1.84   -2.77   -0.47
#  11    3.58   -1.14    0.13   -1.79   -0.17    0.00    0.00       0.61   -4.88   -0.47
#  12    1.28   -1.02    0.07   -0.44   -0.15    0.00    0.00      -0.25   -1.33   -0.45
#  13    5.62   -1.13    0.08   -1.63   -0.14    0.00    0.00       2.81   -4.38   -0.37
#  14   -2.40   -1.65    0.75    1.49   -0.17    0.00    0.00      -1.98    3.41   -0.39
#  15   22.10   -2.94    2.88   -9.36    0.27    0.00    0.00      12.95  -25.15    0.73
#  16  -13.29   -0.05    0.00    7.53    0.15    0.00    0.00      -5.65   22.30    0.44
#  17  -28.84   -0.25    0.09    9.94    0.24    0.00    0.00     -18.81   23.30    0.57
#  18    0.56   -0.68    0.14   -0.23   -0.08    0.00    0.00      -0.30   -0.94   -0.33
#  19    2.44   -0.45    0.04   -1.15   -0.04    0.00    0.00       0.84   -5.13   -0.19
#  20    1.55   -0.18    0.00   -0.86   -0.02    0.00    0.00       0.50   -7.86   -0.22
#  21    0.21   -0.19    0.00   -0.13   -0.04    0.00    0.00      -0.15   -1.05   -0.37
#  22    6.55   -0.32    0.02   -2.74    0.04    0.00    0.00       3.54  -17.38    0.27
#  23   -5.16    0.00    0.00    0.85    0.02    0.00    0.00      -4.30   19.97    0.43
#  24    0.15   -0.30    0.02    0.15   -0.05    0.00    0.00      -0.04    0.88   -0.31
#  25    1.48   -0.23    0.01   -0.50   -0.02    0.00    0.00       0.73   -3.47   -0.14
#  26    0.82   -0.13    0.00   -0.32   -0.02    0.00    0.00       0.36   -3.94   -0.21
#  27    0.36   -0.26    0.02   -0.43   -0.03    0.00    0.00      -0.33   -3.10   -0.25
#  28    0.27   -0.18    0.00   -0.33   -0.03    0.00    0.00      -0.26   -2.75   -0.25
#  29    0.64   -0.26    0.01   -0.47   -0.04    0.00    0.00      -0.13   -2.91   -0.25
#  30    1.13   -0.32    0.02   -0.55   -0.04    0.00    0.00       0.24   -3.23   -0.22
#  31    0.75   -1.13    0.52   -0.36   -0.09    0.00    0.00      -0.31   -1.34   -0.35
#  32    3.81   -1.14    0.40   -1.85   -0.07    0.00    0.00       1.15   -6.25   -0.24
#  33    1.47   -1.67    0.40   -0.76   -0.18    0.00    0.00      -0.74   -1.64   -0.39
#  34    1.77   -1.48    0.16   -1.61   -0.21    0.00    0.00      -1.36   -3.52   -0.46
#  35   -0.92   -0.26    0.02    0.49   -0.09    0.00    0.00      -0.77    1.49   -0.28
#  36   -0.76   -0.26    0.02    0.48   -0.09    0.00    0.00      -0.61    1.50   -0.27
#  37   -0.55   -0.87    1.83    0.36   -0.09    0.00    0.00       0.68    1.01   -0.26
#  38   -0.31   -0.32    0.11    0.50   -0.04    0.00    0.00      -0.05    2.56   -0.22
#  39   -1.76   -0.14    0.01    0.51   -0.03    0.00    0.00      -1.41    4.46   -0.28
#  40   -2.24   -0.45    0.14    0.63   -0.09    0.00    0.00      -2.01    1.63   -0.22
#  41   -4.50   -0.65    0.63    0.49   -0.13    0.00    0.00      -4.16    1.08   -0.28
#  42   -4.10   -0.27    0.05    0.57   -0.07    0.00    0.00      -3.82    2.24   -0.28
#  43   -3.06   -0.24    0.03    1.75   -0.06    0.00    0.00      -1.58    7.64   -0.28
#  44   -6.28   -0.73    0.24    4.87   -0.14    0.00    0.00      -2.03    9.50   -0.28
#  45   -6.56   -0.66    0.86    2.93   -0.09    0.00    0.00      -3.52    8.33   -0.27
#  46   -4.85   -0.24    0.08    1.45   -0.04    0.00    0.00      -3.60    9.32   -0.28
#  47   -2.40   -0.09    0.00    0.91   -0.02    0.00    0.00      -1.60    9.99   -0.18
#  48   -1.58   -0.13    0.01    0.81   -0.04    0.00    0.00      -0.94    5.52   -0.28
#  49   -0.60   -0.05    0.00    0.38   -0.01    0.00    0.00      -0.29    6.33   -0.22
#  50   -0.70   -0.03    0.00    0.12   -0.01    0.00    0.00      -0.61    3.48   -0.28
#  51   -1.98   -0.08    0.00    0.73   -0.02    0.00    0.00      -1.34    9.99   -0.21
#  52   -0.97   -0.04    0.00    0.25   -0.01    0.00    0.00      -0.78    6.31   -0.28
#  53   -2.61   -0.21    0.04    1.70   -0.06    0.00    0.00      -1.14    8.56   -0.28
#  54   -1.35   -0.05    0.00    0.32   -0.02    0.00    0.00      -1.09    5.95   -0.28
#  55   -1.73   -0.09    0.00    0.44   -0.02    0.00    0.00      -1.40    4.90   -0.22
#  56   -0.34   -0.02    0.00    0.05   -0.01    0.00    0.00      -0.32    1.80   -0.28
#  57   -0.32   -0.03    0.00    0.20   -0.01    0.00    0.00      -0.16    5.00   -0.22
#  58   -0.17   -0.09    0.01    0.03   -0.02    0.00    0.00      -0.24    0.29   -0.28
#  59   -0.58   -0.15    0.03    0.23   -0.04    0.00    0.00      -0.51    1.69   -0.28
#  60   -0.11   -0.03    0.00    0.02   -0.01    0.00    0.00      -0.13    0.55   -0.28
#  61   -0.16   -0.07    0.00   -0.03   -0.02    0.00    0.00      -0.28   -0.41   -0.28
#  62   -0.26   -0.07    0.00   -0.01   -0.02    0.00    0.00      -0.36   -0.12   -0.28
#  63   -0.90   -0.12    0.00    0.17   -0.03    0.00    0.00      -0.87    1.43   -0.28
#  64   -1.02   -0.20    0.03    0.57   -0.05    0.00    0.00      -0.68    2.96   -0.28
#  65   -0.49   -0.08    0.00    0.12   -0.02    0.00    0.00      -0.47    1.40   -0.28
#  66   -5.57   -0.80    1.39    2.58   -0.06    0.00    0.00      -2.46    9.83   -0.22
#  67   -4.93   -0.39    0.14    1.31   -0.05    0.00    0.00      -3.94    5.11   -0.21
#  68   -1.30   -0.18    0.02    0.54   -0.05    0.00    0.00      -0.98    3.02   -0.28
#  69   -6.09   -1.30    2.70    1.86   -0.11    0.00    0.00      -2.93    4.92   -0.28
#  70   -1.98   -0.87    1.99    2.40   -0.12    0.00    0.00       1.43    5.70   -0.28
#  71   -2.21   -0.32    0.03    0.78   -0.10    0.00    0.00      -1.82    2.14   -0.28

@<TRIPOS>MOLECULE
          T539501        98
   71    74     0     0     0



@<TRIPOS>ATOM
      1 C1          8.4437   -10.7160    97.7506 C.3        1           0.0205
      2 O1          7.6322   -10.5117    96.5924 O.3        1          -0.3070
      3 C2          6.9973    -9.3139    96.4869 C.ar       1           0.1524
      4 C3          6.1890    -9.0516    95.3907 C.ar       1          -0.1932
      5 C4          5.5444    -7.8347    95.2833 C.ar       1          -0.0673
      6 C5          5.7051    -6.8751    96.2721 C.ar       1           0.0140
      7 O2          5.0702    -5.6774    96.1667 O.3        1          -0.2656
      8 C6          3.7625    -5.6791    95.7974 C.ar       1           0.1410
      9 C7          2.8208    -6.3362    96.5769 C.ar       1          -0.1880
     10 C8          1.4922    -6.3359    96.1994 C.ar       1          -0.0388
     11 C9          1.0999    -5.6815    95.0459 C.ar       1          -0.1416
     12 C10         2.0361    -5.0265    94.2675 C.ar       1          -0.0539
     13 C11         3.3655    -5.0189    94.6435 C.ar       1          -0.2021
     14 C12         4.3844    -4.2994    93.7977 C.3        1           0.0570
     15 N1          4.1560    -4.6155    92.3814 N.4        1          -0.5109
     16 H1          3.2288    -4.3191    92.1159 H          1           0.4242
     17 H2          4.8382    -4.1338    91.8151 H          1           0.4326
     18 C13         4.2844    -6.0645    92.1761 C.3        1          -0.0196
     19 C14         4.0466    -6.3936    90.7011 C.3        1          -0.1271
     20 C15         4.1899    -7.9027    90.4836 C.3        1          -0.1590
     21 C16         5.6225    -8.3265    90.8143 C.3        1          -0.0169
     22 N2          6.5617    -7.6133    89.9404 N.4        1          -0.3842
     23 H3          6.3283    -7.7974    88.9762 H          1           0.4271
     24 C17         7.9287    -8.0792    90.2092 C.3        1          -0.0097
     25 C18         8.8261    -7.7423    89.0167 C.3        1          -0.1132
     26 C19         8.6183    -8.7808    87.9125 C.3        1          -0.1278
     27 C20         9.5158    -8.4438    86.7201 C.3        1          -0.1207
     28 C21        10.9800    -8.4572    87.1639 C.3        1          -0.1285
     29 C22        11.1877    -7.4187    88.2680 C.3        1          -0.1229
     30 C23        10.2903    -7.7557    89.4605 C.3        1          -0.1118
     31 C24         6.4808    -6.1699    90.1947 C.3        1          -0.0235
     32 C25         5.0813    -5.6633    89.8401 C.3        1          -0.1364
     33 C26         6.5130    -7.1377    97.3688 C.ar       1          -0.0946
     34 C27         7.1534    -8.3566    97.4785 C.ar       1          -0.1370
     35 H4          8.8913   -11.7091    97.7102 H          1           0.1125
     36 H5          9.2316    -9.9633    97.7797 H          1           0.0616
     37 H6          7.8274   -10.6316    98.6457 H          1           0.0632
     38 H7          6.0640    -9.7986    94.6208 H          1           0.1447
     39 H8          4.9157    -7.6302    94.4293 H          1           0.1369
     40 H9          3.1267    -6.8476    97.4775 H          1           0.1427
     41 H10         0.7591    -6.8474    96.8054 H          1           0.1425
     42 H11         0.0606    -5.6825    94.7525 H          1           0.1426
     43 H12         1.7272    -4.5168    93.3668 H          1           0.1422
     44 H13         4.2891    -3.2243    93.9501 H          1           0.1427
     45 H14         5.3860    -4.6198    94.0846 H          1           0.1382
     46 H15         5.2860    -6.3846    92.4630 H          1           0.1493
     47 H16         3.5474    -6.5847    92.7879 H          1           0.1266
     48 H17         3.0441    -6.0764    90.4138 H          1           0.1286
     49 H18         3.4942    -8.4320    91.1348 H          1           0.1079
     50 H19         3.9702    -8.1431    89.4434 H          1           0.1172
     51 H20         5.8411    -8.0860    91.8548 H          1           0.1253
     52 H21         5.7279    -9.4004    90.6608 H          1           0.1441
     53 H22         8.3114    -7.5861    91.1028 H          1           0.1317
     54 H23         7.9208    -9.1580    90.3647 H          1           0.1360
     55 H24         8.5704    -6.7527    88.6377 H          1           0.0944
     56 H25         8.8740    -9.7702    88.2916 H          1           0.0805
     57 H26         7.5752    -8.7713    87.5965 H          1           0.0528
     58 H27         9.3677    -9.1837    85.9334 H          1           0.0753
     59 H28         9.2600    -7.4544    86.3410 H          1           0.0671
     60 H29        11.2357    -9.4466    87.5429 H          1           0.0679
     61 H30        11.6192    -8.2172    86.3143 H          1           0.0745
     62 H31        12.2308    -7.4282    88.5842 H          1           0.0771
     63 H32        10.9319    -6.4292    87.8890 H          1           0.0669
     64 H33        10.4383    -7.0158    90.2472 H          1           0.0735
     65 H34        10.5460    -8.7451    89.8396 H          1           0.0758
     66 H35         6.6811    -5.9754    91.2483 H          1           0.1289
     67 H36         7.2201    -5.6518    89.5837 H          1           0.1455
     68 H37         4.8800    -5.8572    88.7865 H          1           0.1105
     69 H38         5.0228    -4.5918    90.0314 H          1           0.1265
     70 H39         6.6381    -6.3908    98.1387 H          1           0.1337
     71 H40         7.7792    -8.5627    98.3343 H          1           0.1455
@<TRIPOS>BOND
     1    1    2 1
     2    1   35 1
     3    1   36 1
     4    1   37 1
     5    2    3 1
     6    3   34 ar
     7    3    4 ar
     8    4    5 ar
     9    4   38 1
    10    5    6 ar
    11    5   39 1
    12    6    7 1
    13    6   33 ar
    14    7    8 1
    15    8   13 ar
    16    8    9 ar
    17    9   10 ar
    18    9   40 1
    19   10   11 ar
    20   10   41 1
    21   11   12 ar
    22   11   42 1
    23   12   13 ar
    24   12   43 1
    25   13   14 1
    26   14   15 1
    27   14   44 1
    28   14   45 1
    29   15   16 1
    30   15   17 1
    31   15   18 1
    32   18   19 1
    33   18   46 1
    34   18   47 1
    35   19   32 1
    36   19   20 1
    37   19   48 1
    38   20   21 1
    39   20   49 1
    40   20   50 1
    41   21   22 1
    42   21   51 1
    43   21   52 1
    44   22   23 1
    45   22   24 1
    46   22   31 1
    47   24   25 1
    48   24   53 1
    49   24   54 1
    50   25   30 1
    51   25   26 1
    52   25   55 1
    53   26   27 1
    54   26   56 1
    55   26   57 1
    56   27   28 1
    57   27   58 1
    58   27   59 1
    59   28   29 1
    60   28   60 1
    61   28   61 1
    62   29   30 1
    63   29   62 1
    64   29   63 1
    65   30   64 1
    66   30   65 1
    67   31   32 1
    68   31   66 1
    69   31   67 1
    70   32   68 1
    71   32   69 1
    72   33   34 ar
    73   33   70 1
    74   34   71 1
##########                 Name:              T539017
##########          Protonation:                   22
##########               SMILES:   [H]/N=C/1\NC(=[NH2+])NC(N1OCCCc2c(ccc3c2cccc3)C)(C)C
##########            Long Name:   methyl-5-[3-(2-methyl-1-naphthyl)propoxy]-1,3,5-triazinan-2-ylidene]ammonium
##########          FlexRecCode: 1
##########               Number:                   65
##########   Ligand Source File: /raidb/db2/rgc/tcams/tcams-0001841.db2.gz
##########           GlobalRank: 227
##########                 Rank:                    1
##########               Setnum:                   41
##########             Matchnum:                 3193
##########                Cloud:                    1
##########        Electrostatic:           -35.864464
##########        Van der Waals:           -33.827805
##########  Ligand Polar Desolv:             8.403132
########## Ligand Apolar Desolv:            -4.662794
##########      Internal Energy:             0.000000
##########      Receptor Energy: 0.0
########## Receptor Desolvation:             0.000000
########## Receptor Hydrophobic:             0.000000
##########         Total Energy: -65.95
##########        Ligand Charge:             1.000000
##########            Arbitrary:    +999.9990
##########     heavy atom count:   25
##########           pose count:    1
##########        Ligand Energy:             0.000000
# num electro vdwattr vdwrepu polsolv apolsol rdesolv rhydroe totalscore fullpol fullapo
#   1    2.43   -2.50    0.86   -0.71   -0.11    0.00    0.00      -0.02   -1.13   -0.18
#   2    1.33   -2.12    0.34   -0.36   -0.23    0.00    0.00      -1.03   -0.63   -0.40
#   3    2.16   -2.90    1.15   -0.34   -0.26    0.00    0.00      -0.20   -0.60   -0.45
#   4    1.16   -2.41    1.06   -0.26   -0.25    0.00    0.00      -0.70   -0.48   -0.46
#   5    0.48   -1.71    0.44   -0.13   -0.20    0.00    0.00      -1.12   -0.26   -0.40
#   6    0.76   -1.68    0.18   -0.22   -0.26    0.00    0.00      -1.22   -0.39   -0.46
#   7    0.87   -2.02    0.59   -0.25   -0.23    0.00    0.00      -1.04   -0.51   -0.47
#   8    0.25   -2.19    0.74   -0.27   -0.19    0.00    0.00      -1.65   -0.67   -0.47
#   9    0.42   -1.58    0.29   -0.20   -0.16    0.00    0.00      -1.22   -0.55   -0.44
#  10    0.32   -1.50    0.25   -0.13   -0.16    0.00    0.00      -1.21   -0.33   -0.40
#  11    1.04   -1.52    0.19   -0.23   -0.17    0.00    0.00      -0.68   -0.49   -0.36
#  12    1.10   -0.83    0.06   -0.28   -0.07    0.00    0.00      -0.01   -0.67   -0.18
#  13    1.26   -1.27    0.26   -0.44   -0.10    0.00    0.00      -0.30   -0.98   -0.23
#  14   -0.33   -0.98    0.12    0.25   -0.05    0.00    0.00      -0.99    0.61   -0.13
#  15    1.51   -0.67    0.03   -0.56    0.13    0.00    0.00       0.43   -1.90    0.43
#  16    9.99   -0.69    0.02   -2.41    0.24    0.00    0.00       7.14   -8.89    0.87
#  17   -9.43   -0.75    0.04    3.07   -1.19    0.00    0.00      -8.25   11.35   -4.38
#  18    3.01   -1.43    0.61   -3.55    0.44    0.00    0.00      -0.91  -11.31    1.41
#  19   16.78   -1.03    0.10   -5.97    0.41    0.00    0.00      10.29  -16.86    1.15
#  20  -18.44   -1.25    0.14    7.95   -1.68    0.00    0.00     -13.29   21.41   -4.52
#  21   16.59   -1.46    0.16   -8.54    0.37    0.00    0.00       7.12  -20.78    0.89
#  22  -11.28   -0.02    0.00    3.99    0.15    0.00    0.00      -7.16   15.61    0.60
#  23   -9.90   -0.03    0.00    5.56    0.21    0.00    0.00      -4.16   16.08    0.60
#  24   19.41   -1.94    0.41   -7.76    0.63    0.00    0.00      10.75  -18.79    1.53
#  25  -12.36   -0.76    0.06    3.30   -0.14    0.00    0.00      -9.89    9.11   -0.38
#  26    7.23   -1.48    0.42   -1.81   -0.09    0.00    0.00       4.28   -3.81   -0.18
#  27    4.97   -0.99    0.22   -1.04   -0.05    0.00    0.00       3.11   -3.36   -0.16
#  28   -1.88   -1.40    1.02    0.54   -0.18    0.00    0.00      -1.91    0.84   -0.28
#  29   -1.40   -0.84    0.43    0.40   -0.15    0.00    0.00      -1.57    0.73   -0.28
#  30   -1.06   -0.95    0.73    0.78   -0.12    0.00    0.00      -0.63    1.32   -0.20
#  31   -3.09   -1.13    1.18    0.55   -0.16    0.00    0.00      -2.66    0.95   -0.28
#  32   -1.15   -0.70    0.86    0.30   -0.15    0.00    0.00      -0.84    0.56   -0.28
#  33   -0.86   -0.46    0.08    0.27   -0.15    0.00    0.00      -1.11    0.52   -0.28
#  34   -1.65   -0.71    0.56    0.36   -0.12    0.00    0.00      -1.57    0.80   -0.28
#  35    0.16   -0.71    0.50    0.36   -0.09    0.00    0.00       0.22    1.13   -0.28
#  36   -0.41   -0.29    0.07    0.28   -0.05    0.00    0.00      -0.39    1.28   -0.21
#  37   -1.47   -0.33    0.07    0.24   -0.06    0.00    0.00      -1.55    0.80   -0.21
#  38   -1.15   -0.18    0.01    0.23   -0.04    0.00    0.00      -1.13    1.39   -0.22
#  39   -0.32   -0.67    0.34    0.32   -0.09    0.00    0.00      -0.43    0.84   -0.25
#  40   -1.07   -0.55    0.14    0.11   -0.13    0.00    0.00      -1.49    0.24   -0.28
#  41   -1.41   -0.34    0.04    0.21   -0.10    0.00    0.00      -1.59    0.58   -0.27
#  42   -1.42   -0.53    0.27    0.47   -0.09    0.00    0.00      -1.31    1.46   -0.27
#  43   -2.32   -0.02    0.00    1.53    0.15    0.00    0.00      -0.65    6.12    0.60
#  44  -14.33   -0.03    0.00    3.51    0.16    0.00    0.00     -10.69   12.55    0.59
#  45  -13.10   -0.07    0.00    5.71    0.24    0.00    0.00      -7.21   13.69    0.58
#  46   -4.79   -0.79    0.37    0.60   -0.14    0.00    0.00      -4.75    1.14   -0.27
#  47   -3.23   -0.51    0.13    1.32   -0.12    0.00    0.00      -2.42    3.08   -0.28
#  48   -2.82   -0.53    0.51    0.43   -0.08    0.00    0.00      -2.49    1.39   -0.26
#  49   -3.46   -0.84    0.72    0.45   -0.11    0.00    0.00      -3.24    1.18   -0.28
#  50   -3.07   -0.24    0.05    0.57   -0.05    0.00    0.00      -2.74    3.04   -0.28
#  51   -1.89   -0.16    0.01    0.19   -0.04    0.00    0.00      -1.88    1.18   -0.26

@<TRIPOS>MOLECULE
          T539017        22
   51    53     0     0     0



@<TRIPOS>ATOM
      1 C1          8.2957    -6.9662    99.1637 C.3        1          -0.1202
      2 C2          8.3092    -8.3881    98.6646 C.ar       1          -0.0745
      3 C3          9.0711    -9.3436    99.3347 C.ar       1          -0.1150
      4 C4          9.1056   -10.6361    98.9098 C.ar       1          -0.0989
      5 C5          8.3627   -11.0165    97.7792 C.ar       1          -0.0560
      6 C6          8.3729   -12.3415    97.3110 C.ar       1          -0.1013
      7 C7          7.6407   -12.6734    96.2129 C.ar       1          -0.1188
      8 C8          6.8785   -11.7179    95.5431 C.ar       1          -0.1107
      9 C9          6.8444   -10.4254    95.9676 C.ar       1          -0.1149
     10 C10         7.5876   -10.0450    97.0981 C.ar       1          -0.0396
     11 C11         7.5729    -8.7211    97.5695 C.ar       1          -0.0811
     12 C12         6.7505    -7.6745    96.8630 C.3        1          -0.0751
     13 C13         5.3483    -7.6297    97.4735 C.3        1          -0.1076
     14 C14         4.5134    -6.5672    96.7561 C.3        1           0.0187
     15 O1          4.4183    -6.8932    95.3680 O.3        1          -0.0920
     16 N1          3.3383    -6.2653    94.7015 N.pl3      1          -0.5004
     17 C15         2.0904    -6.8668    94.6267 C.2        1           0.6094
     18 N2          1.9501    -8.1267    94.3276 N.2        1          -0.6534
     19 N3          0.9950    -6.0456    94.8903 N.pl3      1          -0.6965
     20 C16         1.0838    -4.7427    94.4019 C.cat      1           0.7671
     21 N4          0.0525    -4.1223    93.9039 N.pl3      1          -0.7156
     22 H1         -0.8089    -4.5669    93.8651 H          1           0.4482
     23 H2          0.1456    -3.2157    93.5719 H          1           0.4505
     24 N5          2.3334    -4.1448    94.4771 N.pl3      1          -0.7240
     25 C17         3.4948    -4.9453    94.0663 C.3        1           0.4168
     26 C18         4.7865    -4.2806    94.5467 C.3        1          -0.1805
     27 C19         3.5140    -5.0935    92.5437 C.3        1          -0.1645
     28 H3          8.9364    -6.8832   100.0416 H          1           0.0731
     29 H4          8.6639    -6.3029    98.3812 H          1           0.0691
     30 H5          7.2769    -6.6841    99.4296 H          1           0.0665
     31 H6          9.6430    -9.0539   100.2039 H          1           0.1250
     32 H7          9.7012   -11.3656    99.4387 H          1           0.1291
     33 H8          8.9591   -13.0925    97.8198 H          1           0.1285
     34 H9          7.6506   -13.6923    95.8550 H          1           0.1246
     35 H10         6.3067   -12.0075    94.6739 H          1           0.1227
     36 H11         6.2496    -9.6957    95.4384 H          1           0.1252
     37 H12         7.2271    -6.7006    96.9756 H          1           0.0789
     38 H13         6.6780    -7.9232    95.8042 H          1           0.0803
     39 H14         4.8717    -8.6034    97.3608 H          1           0.0782
     40 H15         5.4208    -7.3809    98.5323 H          1           0.0793
     41 H16         3.5144    -6.5353    97.1910 H          1           0.0803
     42 H17         4.9900    -5.5933    96.8687 H          1           0.0621
     43 H18         1.0640    -8.5190    94.2829 H          1           0.3678
     44 H19         0.2205    -6.3606    95.3820 H          1           0.4512
     45 H20         2.4373    -3.2329    94.7912 H          1           0.4486
     46 H21         4.8921    -3.3057    94.0708 H          1           0.0985
     47 H22         4.7497    -4.1547    95.6288 H          1           0.0968
     48 H23         5.6379    -4.9080    94.2825 H          1           0.0636
     49 H24         3.6302    -4.1118    92.0845 H          1           0.0886
     50 H25         4.3476    -5.7322    92.2513 H          1           0.0935
     51 H26         2.5783    -5.5421    92.2104 H          1           0.0988
@<TRIPOS>BOND
     1    1    2 1
     2    1   28 1
     3    1   29 1
     4    1   30 1
     5    2   11 ar
     6    2    3 ar
     7    3    4 ar
     8    3   31 1
     9    4    5 ar
    10    4   32 1
    11    5   10 ar
    12    5    6 ar
    13    6    7 ar
    14    6   33 1
    15    7    8 ar
    16    7   34 1
    17    8    9 ar
    18    8   35 1
    19    9   10 ar
    20    9   36 1
    21   10   11 ar
    22   11   12 1
    23   12   13 1
    24   12   37 1
    25   12   38 1
    26   13   14 1
    27   13   39 1
    28   13   40 1
    29   14   15 1
    30   14   41 1
    31   14   42 1
    32   15   16 1
    33   16   25 1
    34   16   17 1
    35   17   18 2
    36   17   19 1
    37   18   43 1
    38   19   20 1
    39   19   44 1
    40   20   21 2
    41   20   24 1
    42   21   22 1
    43   21   23 1
    44   24   25 1
    45   24   45 1
    46   25   26 1
    47   25   27 1
    48   26   46 1
    49   26   47 1
    50   26   48 1
    51   27   49 1
    52   27   50 1
    53   27   51 1
##########                 Name:              T541820
##########          Protonation:                   83
##########               SMILES:   c1cc(cc(c1)c2ncc(cc2)C[NH2+][C@H]3CCN(CC3)C[C@@H]4c5c6n(c(=O)ccc6ccc5F)C4)Cl
##########            Long Name:   phenyl)-3-pyridyl]methyl-[1-[[fluoro(oxo)BLAHyl]methyl]-4-piperidyl]ammonium
##########          FlexRecCode: 1
##########               Number:                  338
##########   Ligand Source File: /raidb/db2/rgc/tcams/tcams-0002149.db2.gz
##########           GlobalRank: 227
##########                 Rank:                    1
##########               Setnum:                   59
##########             Matchnum:                 2241
##########                Cloud:                    1
##########        Electrostatic:           -49.342888
##########        Van der Waals:           -27.755030
##########  Ligand Polar Desolv:            15.269041
########## Ligand Apolar Desolv:            -4.123729
##########      Internal Energy:             0.000000
##########      Receptor Energy: 0.0
########## Receptor Desolvation:             0.000000
########## Receptor Hydrophobic:             0.000000
##########         Total Energy: -65.95
##########        Ligand Charge:             1.000000
##########            Arbitrary:    +999.9990
##########     heavy atom count:   36
##########           pose count:    1
##########        Ligand Energy:             0.000000
# num electro vdwattr vdwrepu polsolv apolsol rdesolv rhydroe totalscore fullpol fullapo
#   1    0.23   -1.72    1.42   -0.48   -0.18    0.00    0.00      -0.72   -1.29   -0.48
#   2   -0.33   -1.47    0.47    0.46   -0.10    0.00    0.00      -0.97    1.58   -0.34
#   3    0.42   -1.31    0.56   -0.41   -0.10    0.00    0.00      -0.84   -1.70   -0.40
#   4    0.08   -0.56    0.10   -0.03   -0.04    0.00    0.00      -0.44   -0.13   -0.20
#   5   -0.11   -0.25    0.01    0.21   -0.06    0.00    0.00      -0.20    1.19   -0.32
#   6    3.24   -0.37    0.01   -1.50    0.43    0.00    0.00       1.81  -10.45    3.01
#   7   -0.46   -0.21    0.00    0.11   -0.05    0.00    0.00      -0.61    0.88   -0.41
#   8    2.74   -0.48    0.04   -0.84   -0.05    0.00    0.00       1.41   -3.67   -0.24
#   9   -0.60   -0.58    0.06    0.59   -0.06    0.00    0.00      -0.58    2.36   -0.23
#  10    2.81   -0.48    0.02   -1.05   -0.06    0.00    0.00       1.25   -4.05   -0.22
#  11   -0.63   -0.33    0.01    0.16   -0.08    0.00    0.00      -0.88    0.77   -0.40
#  12   23.92   -3.28    4.95   -6.90    0.25    0.00    0.00      18.95  -17.64    0.63
#  13  -28.58   -0.27    0.20    6.15    0.19    0.00    0.00     -22.31   17.82    0.56
#  14  -20.74   -0.09    0.01    6.88    0.23    0.00    0.00     -13.71   16.67    0.56
#  15   -2.07   -1.52    0.46    1.11   -0.19    0.00    0.00      -2.20    2.37   -0.40
#  16    7.43   -1.43    0.21   -1.63   -0.15    0.00    0.00       4.43   -3.90   -0.37
#  17    0.86   -1.73    0.44   -0.30   -0.19    0.00    0.00      -0.92   -0.74   -0.46
#  18    2.71   -1.59    0.32   -1.38   -0.19    0.00    0.00      -0.12   -3.28   -0.44
#  19   -3.61   -1.18    0.10    0.56   -0.29    0.00    0.00      -4.42    1.43   -0.74
#  20   10.81   -1.54    0.33   -2.95    0.67    0.00    0.00       7.33   -7.82    1.79
#  21   -4.96   -1.73    0.63    0.90   -0.37    0.00    0.00      -5.53    2.28   -0.95
#  22    0.88   -1.36    0.13   -0.18   -0.17    0.00    0.00      -0.71   -0.44   -0.41
#  23    0.71   -1.27    0.13   -0.30   -0.15    0.00    0.00      -0.88   -0.86   -0.43
#  24    0.34   -1.38    0.18   -0.18   -0.13    0.00    0.00      -1.17   -0.42   -0.29
#  25    0.44   -2.56    0.27   -0.26   -0.49    0.00    0.00      -2.60   -0.52   -0.98
#  26    0.91   -2.12    0.99   -0.45   -0.24    0.00    0.00      -0.91   -0.88   -0.46
#  27    1.91   -2.72    1.33   -0.48   -0.27    0.00    0.00      -0.23   -0.85   -0.47
#  28    1.05   -1.92    0.27   -0.44   -0.25    0.00    0.00      -1.29   -0.81   -0.46
#  29   -0.27   -0.43    0.03    0.25   -0.13    0.00    0.00      -0.54    1.04   -0.53
#  30    0.92   -0.79    0.11   -0.69    0.43    0.00    0.00      -0.02   -2.73    1.71
#  31   -0.37   -1.18    0.65    0.22   -0.16    0.00    0.00      -0.84    0.97   -0.69
#  32    0.22   -0.92    0.38   -0.30   -0.08    0.00    0.00      -0.69   -1.53   -0.41
#  33    0.02   -0.69    0.17   -0.01   -0.09    0.00    0.00      -0.59   -0.05   -0.46
#  34    0.26   -0.97    0.20   -0.52   -0.12    0.00    0.00      -1.15   -2.09   -0.46
#  35    0.01   -0.93    0.39    0.11   -0.11    0.00    0.00      -0.53    0.47   -0.47
#  36    0.26   -1.99    2.71   -0.43   -0.14    0.00    0.00       0.41   -1.46   -0.46
#  37   -0.71   -1.20    0.50    0.23   -0.20    0.00    0.00      -1.39    0.74   -0.65
#  38    0.45   -1.28    0.23    0.65    0.17    0.00    0.00       0.22    1.76    0.45
#  39   -0.37   -0.35    0.21    0.40   -0.05    0.00    0.00      -0.16    1.89   -0.23
#  40   -0.08   -0.11    0.01    0.09   -0.04    0.00    0.00      -0.14    0.64   -0.28
#  41   -0.12   -0.04    0.00    0.02   -0.01    0.00    0.00      -0.15    0.55   -0.26
#  42   -0.29   -0.07    0.00    0.07   -0.02    0.00    0.00      -0.30    1.02   -0.28
#  43   -0.49   -0.04    0.00    0.03   -0.01    0.00    0.00      -0.52    0.66   -0.27
#  44   -2.26   -0.14    0.01    0.51   -0.04    0.00    0.00      -1.92    3.84   -0.28
#  45   -1.84   -0.26    0.06    0.57   -0.06    0.00    0.00      -1.54    2.50   -0.28
#  46   -3.00   -0.11    0.00    0.66   -0.03    0.00    0.00      -2.47    6.31   -0.28
#  47   -2.19   -0.14    0.00    0.63   -0.03    0.00    0.00      -1.73    4.57   -0.22
#  48   -1.90   -0.24    0.04    0.60   -0.06    0.00    0.00      -1.55    2.91   -0.28
#  49   -1.51   -0.12    0.00    0.16   -0.03    0.00    0.00      -1.50    1.18   -0.23
#  50   -0.41   -0.13    0.01    0.11   -0.03    0.00    0.00      -0.44    1.07   -0.28
#  51   -6.72   -0.74    0.28    3.39   -0.12    0.00    0.00      -3.90    6.37   -0.22
#  52   -4.59   -0.36    0.05    2.65   -0.10    0.00    0.00      -2.36    7.22   -0.28
#  53   -3.66   -0.46    0.14    2.10   -0.09    0.00    0.00      -1.98    6.43   -0.28
#  54   -2.10   -0.41    0.07    0.92   -0.09    0.00    0.00      -1.61    2.25   -0.22
#  55   -8.11   -1.11    3.86    1.75   -0.09    0.00    0.00      -3.70    5.51   -0.28
#  56   -0.91   -0.20    0.01    0.36   -0.04    0.00    0.00      -0.77    1.87   -0.21
#  57   -1.34   -0.43    0.11    0.39   -0.13    0.00    0.00      -1.39    0.85   -0.28
#  58   -3.71   -1.08    1.56    0.76   -0.15    0.00    0.00      -2.62    1.42   -0.28
#  59   -2.55   -0.47    0.08    0.63   -0.14    0.00    0.00      -2.45    1.20   -0.27
#  60   -0.59   -0.19    0.02    0.20   -0.06    0.00    0.00      -0.63    0.86   -0.28
#  61   -0.15   -0.07    0.00    0.06   -0.02    0.00    0.00      -0.18    0.91   -0.26
#  62   -0.17   -0.07    0.00    0.22   -0.02    0.00    0.00      -0.04    3.10   -0.28
#  63   -0.16   -0.18    0.02    0.44   -0.05    0.00    0.00       0.06    2.29   -0.28
#  64   -0.17   -0.11    0.02    0.40   -0.04    0.00    0.00       0.10    2.94   -0.28
#  65   -0.15   -0.66    0.73    0.27   -0.09    0.00    0.00       0.09    0.79   -0.28

@<TRIPOS>MOLECULE
          T541820        83
   65    70     0     0     0



@<TRIPOS>ATOM
      1 F1         -1.4933   -10.5026    93.0334 F          1          -0.1291
      2 C1         -2.1461   -10.1946    91.8914 C.ar       1           0.1765
      3 C2         -1.8633    -9.0160    91.2314 C.ar       1          -0.1853
      4 C3         -0.9199    -7.8630    91.4763 C.3        1          -0.0327
      5 C4          0.5309    -8.3490    91.4701 C.3        1           0.0637
      6 N1          1.4294    -7.2119    91.7100 N.3        1          -0.5412
      7 C5          2.7674    -7.4742    91.1647 C.3        1           0.0572
      8 C6          3.6309    -6.2183    91.3021 C.3        1          -0.1375
      9 C7          3.7286    -5.8312    92.7803 C.3        1           0.0228
     10 C8          2.3190    -5.6106    93.3364 C.3        1          -0.1383
     11 C9          1.4935    -6.8843    93.1399 C.3        1           0.0522
     12 N2          4.5079    -4.5930    92.9132 N.4        1          -0.5068
     13 H1          5.4348    -4.7376    92.5418 H          1           0.4274
     14 H2          4.0523    -3.8522    92.4013 H          1           0.4274
     15 C10         4.6008    -4.2227    94.3317 C.3        1           0.0510
     16 C11         5.2812    -5.3289    95.0962 C.ar       1          -0.2328
     17 C12         4.7640    -5.7635    96.3084 C.ar       1          -0.0371
     18 C13         5.4188    -6.7819    96.9790 C.ar       1          -0.1638
     19 C14         6.5687    -7.3327    96.4169 C.ar       1           0.2202
     20 N3          7.0308    -6.8881    95.2556 N.ar       1          -0.4727
     21 C15         6.4233    -5.9243    94.5938 C.ar       1           0.1459
     22 C16         7.2822    -8.4248    97.1232 C.ar       1          -0.0685
     23 C17         7.4475    -9.6643    96.5081 C.ar       1          -0.0838
     24 C18         8.1127   -10.6774    97.1704 C.ar       1          -0.0405
     25 Cl1         8.3200   -12.2224    96.4065 Cl         1          -0.0529
     26 C19         8.6149   -10.4625    98.4427 C.ar       1          -0.0823
     27 C20         8.4527    -9.2342    99.0570 C.ar       1          -0.1102
     28 C21         7.7945    -8.2130    98.4016 C.ar       1          -0.0649
     29 C22        -1.1716    -6.9025    90.2942 C.3        1           0.1222
     30 N4         -2.2094    -7.5498    89.4782 N.am       1          -0.5253
     31 C23        -2.5460    -8.7325    90.0702 C.ar       1           0.1862
     32 C24        -3.5112    -9.5986    89.5447 C.ar       1          -0.1393
     33 C25        -3.7868   -10.7880    90.2257 C.ar       1          -0.0143
     34 C26        -3.1014   -11.0699    91.3767 C.ar       1          -0.1837
     35 C27        -4.1776    -9.2011    88.3048 C.2        1          -0.0076
     36 C28        -3.8146    -8.0160    87.7454 C.2        1          -0.2140
     37 C29        -2.8310    -7.1924    88.3346 C.2        1           0.5468
     38 O1         -2.5365    -6.1375    87.7997 O.2        1          -0.5272
     39 H3         -1.1529    -7.3747    92.4225 H          1           0.1039
     40 H4          0.6683    -9.0925    92.2554 H          1           0.0584
     41 H5          0.7604    -8.7957    90.5027 H          1           0.0875
     42 H6          3.2291    -8.2943    91.7144 H          1           0.0498
     43 H7          2.6840    -7.7443    90.1121 H          1           0.0984
     44 H8          4.6287    -6.4181    90.9117 H          1           0.0943
     45 H9          3.1769    -5.4013    90.7413 H          1           0.0982
     46 H10         4.2178    -6.6319    93.3350 H          1           0.1386
     47 H11         2.3795    -5.3765    94.3992 H          1           0.0942
     48 H12         1.8443    -4.7842    92.8075 H          1           0.0988
     49 H13         0.4849    -6.7258    93.5218 H          1           0.0984
     50 H14         1.9612    -7.7072    93.6805 H          1           0.0509
     51 H15         5.1791    -3.3040    94.4303 H          1           0.1424
     52 H16         3.5995    -4.0665    94.7328 H          1           0.1397
     53 H17         3.8706    -5.3170    96.7196 H          1           0.1474
     54 H18         5.0441    -7.1443    97.9249 H          1           0.1515
     55 H19         6.8256    -5.5917    93.6483 H          1           0.1661
     56 H20         7.0561    -9.8325    95.5158 H          1           0.1384
     57 H21         9.1348   -11.2570    98.9574 H          1           0.1429
     58 H22         8.8461    -9.0720   100.0496 H          1           0.1433
     59 H23         7.6729    -7.2528    98.8807 H          1           0.1438
     60 H24        -1.5259    -5.9387    90.6600 H          1           0.0916
     61 H25        -0.2594    -6.7737    89.7117 H          1           0.0976
     62 H26        -4.5266   -11.4774    89.8463 H          1           0.1528
     63 H27        -3.3093   -11.9905    91.9017 H          1           0.1475
     64 H28        -4.9310    -9.8269    87.8497 H          1           0.1553
     65 H29        -4.2901    -7.6972    86.8296 H          1           0.1608
@<TRIPOS>BOND
     1    1    2 1
     2    2   34 ar
     3    2    3 ar
     4    3   31 ar
     5    3    4 1
     6    4    5 1
     7    4   29 1
     8    4   39 1
     9    5    6 1
    10    5   40 1
    11    5   41 1
    12    6   11 1
    13    6    7 1
    14    7    8 1
    15    7   42 1
    16    7   43 1
    17    8    9 1
    18    8   44 1
    19    8   45 1
    20    9   10 1
    21    9   12 1
    22    9   46 1
    23   10   11 1
    24   10   47 1
    25   10   48 1
    26   11   49 1
    27   11   50 1
    28   12   13 1
    29   12   14 1
    30   12   15 1
    31   15   16 1
    32   15   51 1
    33   15   52 1
    34   16   21 ar
    35   16   17 ar
    36   17   18 ar
    37   17   53 1
    38   18   19 ar
    39   18   54 1
    40   19   20 ar
    41   19   22 1
    42   20   21 ar
    43   21   55 1
    44   22   28 ar
    45   22   23 ar
    46   23   24 ar
    47   23   56 1
    48   24   25 1
    49   24   26 ar
    50   26   27 ar
    51   26   57 1
    52   27   28 ar
    53   27   58 1
    54   28   59 1
    55   29   30 1
    56   29   60 1
    57   29   61 1
    58   30   37 am
    59   30   31 1
    60   31   32 ar
    61   32   33 ar
    62   32   35 1
    63   33   34 ar
    64   33   62 1
    65   34   63 1
    66   35   36 2
    67   35   64 1
    68   36   37 1
    69   36   65 1
    70   37   38 2
##########                 Name:              T537806
##########          Protonation:                   56
##########               SMILES:   Cc1c2cc(ccc2[nH]n1)c3cc(cnc3c4ccccc4OCc5cccc(c5)F)OC[C@@H](Cc6ccccc6)[NH3+]
##########            Long Name:   yl)methoxy]phenyl]-5-(3-methyl-1H-indazol-5-yl)-3-pyridyl]oxy]ethyl]ammonium
##########          FlexRecCode: 1
##########               Number:                  328
##########   Ligand Source File: /raidb/db2/rgc/tcams/tcams-0001722.db2.gz
##########           GlobalRank: 230
##########                 Rank:                    1
##########               Setnum:                  136
##########             Matchnum:                 2307
##########                Cloud:                    1
##########        Electrostatic:           -40.228065
##########        Van der Waals:           -28.705189
##########  Ligand Polar Desolv:             6.789826
########## Ligand Apolar Desolv:            -3.797318
##########      Internal Energy:             0.000000
##########      Receptor Energy: 0.0
########## Receptor Desolvation:             0.000000
########## Receptor Hydrophobic:             0.000000
##########         Total Energy: -65.94
##########        Ligand Charge:             1.000000
##########            Arbitrary:    +999.9990
##########     heavy atom count:   42
##########           pose count:    1
##########        Ligand Energy:             0.000000
# num electro vdwattr vdwrepu polsolv apolsol rdesolv rhydroe totalscore fullpol fullapo
#   1    0.19   -0.46    0.14   -0.12   -0.04    0.00    0.00      -0.29   -0.71   -0.21
#   2   -0.24   -0.85    0.56    0.07   -0.11    0.00    0.00      -0.58    0.48   -0.82
#   3    0.44   -0.54    0.14   -0.11    0.15    0.00    0.00       0.07   -0.85    1.18
#   4    0.74   -0.33    0.03   -0.24    0.09    0.00    0.00       0.29   -1.96    0.73
#   5   -0.25   -0.28    0.03    0.05   -0.08    0.00    0.00      -0.53    0.50   -0.80
#   6    0.20   -0.14    0.00   -0.07   -0.03    0.00    0.00      -0.04   -1.07   -0.47
#   7    0.07   -0.13    0.00   -0.02   -0.02    0.00    0.00      -0.10   -0.29   -0.36
#   8    0.38   -0.20    0.00   -0.06   -0.02    0.00    0.00       0.11   -0.72   -0.25
#   9    0.08   -0.32    0.03   -0.01   -0.05    0.00    0.00      -0.27   -0.09   -0.45
#  10    0.42   -0.50    0.15   -0.16   -0.05    0.00    0.00      -0.14   -1.29   -0.44
#  11    0.19   -0.30    0.01   -0.06   -0.05    0.00    0.00      -0.21   -0.52   -0.37
#  12    1.01   -0.29    0.01   -0.18   -0.05    0.00    0.00       0.49   -1.56   -0.45
#  13   -1.10   -0.63    0.05    0.51   -0.07    0.00    0.00      -1.24    2.38   -0.31
#  14    6.81   -0.48    0.03   -1.41    0.17    0.00    0.00       5.11   -7.29    0.86
#  15   -0.96   -1.08    0.53   -0.01   -0.02    0.00    0.00      -1.55   -0.04   -0.08
#  16   -1.38   -0.77    0.22    0.87   -0.08    0.00    0.00      -1.14    3.08   -0.29
#  17   20.50   -1.38    0.69   -6.99    0.22    0.00    0.00      13.04  -23.20    0.73
#  18  -21.49   -0.08    0.02    5.71    0.18    0.00    0.00     -15.66   17.56    0.56
#  19  -11.34   -0.02    0.00    3.93    0.11    0.00    0.00      -7.33   16.66    0.45
#  20  -10.24   -0.01    0.00    3.09    0.10    0.00    0.00      -7.06   18.53    0.58
#  21    1.48   -0.49    0.04   -0.64   -0.05    0.00    0.00       0.34   -2.74   -0.22
#  22    1.57   -1.08    0.12   -0.64   -0.11    0.00    0.00      -0.13   -1.92   -0.33
#  23    1.12   -1.28    0.24   -0.85   -0.13    0.00    0.00      -0.90   -2.58   -0.39
#  24    0.92   -1.70    0.32   -1.02   -0.19    0.00    0.00      -1.66   -2.54   -0.47
#  25    1.17   -2.93    1.57   -1.20   -0.24    0.00    0.00      -1.63   -2.34   -0.47
#  26    1.44   -2.85    0.98   -1.22   -0.24    0.00    0.00      -1.89   -2.36   -0.47
#  27    1.60   -1.66    0.24   -1.01   -0.19    0.00    0.00      -1.01   -2.38   -0.45
#  28   -0.61   -1.64    0.43    0.06   -0.28    0.00    0.00      -2.05    0.18   -0.90
#  29    2.31   -2.16    0.95   -1.47    0.60    0.00    0.00       0.23   -4.54    1.85
#  30   -0.59   -0.87    0.15    0.21   -0.15    0.00    0.00      -1.25    0.94   -0.66
#  31    0.25   -1.21    0.36   -0.13   -0.08    0.00    0.00      -0.81   -0.51   -0.30
#  32    0.19   -1.52    0.34   -0.14   -0.12    0.00    0.00      -1.25   -0.41   -0.35
#  33    0.64   -2.07    0.70   -0.45   -0.21    0.00    0.00      -1.38   -1.02   -0.47
#  34    0.18   -1.90    0.38   -0.26   -0.22    0.00    0.00      -1.82   -0.57   -0.47
#  35    0.45   -1.57    0.35   -0.54   -0.16    0.00    0.00      -1.47   -1.45   -0.42
#  36   -0.33   -1.06    0.21    0.20   -0.08    0.00    0.00      -1.06    0.78   -0.31
#  37    0.47   -0.52    0.03   -0.41    0.16    0.00    0.00      -0.26   -2.05    0.80
#  38   -0.11   -0.87    0.20    0.23   -0.03    0.00    0.00      -0.57    0.79   -0.10
#  39    0.07   -0.63    0.03   -0.16   -0.10    0.00    0.00      -0.79   -0.63   -0.39
#  40    0.11   -0.43    0.02   -0.19   -0.08    0.00    0.00      -0.57   -1.13   -0.45
#  41    0.11   -0.39    0.01   -0.17   -0.08    0.00    0.00      -0.51   -0.99   -0.47
#  42    0.21   -0.54    0.03   -0.33   -0.11    0.00    0.00      -0.73   -1.43   -0.47
#  43   -0.12   -0.73    0.07    0.09   -0.09    0.00    0.00      -0.78    0.36   -0.34
#  44    0.58   -0.62    0.13   -0.26   -0.15    0.00    0.00      -0.32   -0.85   -0.48
#  45    0.14   -0.92    0.13   -0.31   -0.13    0.00    0.00      -1.09   -1.06   -0.45
#  46   -0.18   -0.09    0.01    0.12   -0.03    0.00    0.00      -0.18    1.18   -0.28
#  47   -0.46   -0.32    0.20    0.11   -0.06    0.00    0.00      -0.53    0.53   -0.28
#  48   -0.18   -0.05    0.00    0.08   -0.01    0.00    0.00      -0.16    1.49   -0.28
#  49   -0.48    0.00    0.00    0.14    0.02    0.00    0.00      -0.32    2.50    0.40
#  50   -0.14   -0.02    0.00    0.03   -0.01    0.00    0.00      -0.14    1.15   -0.28
#  51   -0.17   -0.02    0.00    0.03   -0.01    0.00    0.00      -0.17    1.04   -0.27
#  52   -1.25   -0.06    0.00    0.15   -0.02    0.00    0.00      -1.18    2.29   -0.28
#  53   -1.35   -0.03    0.00    0.12   -0.01    0.00    0.00      -1.27    3.28   -0.28
#  54   -6.40   -1.62    5.79    0.96   -0.09    0.00    0.00      -1.35    2.91   -0.26
#  55   -2.64   -0.20    0.02    0.84   -0.05    0.00    0.00      -2.04    4.29   -0.26
#  56   -5.71   -0.28    0.06    1.21   -0.06    0.00    0.00      -4.79    5.23   -0.28
#  57   -2.04   -0.12    0.00    0.34   -0.03    0.00    0.00      -1.85    3.15   -0.28
#  58   -0.72   -0.18    0.04    0.67   -0.04    0.00    0.00      -0.23    4.98   -0.28
#  59   -0.77   -0.21    0.03    1.09   -0.05    0.00    0.00       0.09    6.21   -0.28
#  60   -1.06   -0.27    0.03    0.52   -0.07    0.00    0.00      -0.85    2.12   -0.28
#  61   -1.92   -0.83    0.60    0.37   -0.14    0.00    0.00      -1.91    0.77   -0.28
#  62   -2.13   -0.87    0.32    0.53   -0.16    0.00    0.00      -2.32    0.95   -0.28
#  63   -2.71   -0.36    0.06    0.96   -0.09    0.00    0.00      -2.14    2.84   -0.28
#  64   -4.33   -0.63    0.36    1.43   -0.08    0.00    0.00      -3.25    4.07   -0.22
#  65   -0.68   -0.29    0.06    0.20   -0.06    0.00    0.00      -0.77    0.85   -0.25
#  66   -0.69   -0.86    1.47    0.33   -0.11    0.00    0.00       0.14    0.83   -0.28
#  67   -0.39   -0.59    0.27    0.55   -0.14    0.00    0.00      -0.30    1.13   -0.28
#  68   -0.25   -0.55    0.52    0.38   -0.07    0.00    0.00       0.03    1.28   -0.22
#  69   -0.07   -0.79    1.08    0.21   -0.09    0.00    0.00       0.35    0.63   -0.26
#  70   -0.09   -0.42    0.30    0.27   -0.07    0.00    0.00      -0.01    1.03   -0.27
#  71   -0.13   -0.08    0.00    0.18   -0.03    0.00    0.00      -0.04    1.98   -0.28
#  72   -0.16   -0.06    0.00    0.18   -0.02    0.00    0.00      -0.07    2.62   -0.28
#  73   -0.28   -0.17    0.02    0.37   -0.06    0.00    0.00      -0.12    1.86   -0.28
#  74   -0.16   -0.45    0.27    0.26   -0.08    0.00    0.00      -0.16    0.87   -0.28

@<TRIPOS>MOLECULE
          T537806        56
   74    79     0     0     0



@<TRIPOS>ATOM
      1 C1          9.9496    -8.7187    85.7439 C.3        1          -0.0785
      2 C2          8.6883    -9.4861    85.4414 C.2        1           0.1040
      3 N1          8.5840   -10.5050    84.6371 N.2        1          -0.2445
      4 N2          7.2618   -10.9596    84.6060 N.pl3      1          -0.5058
      5 C3          6.4999   -10.1806    85.4372 C.ar       1           0.1436
      6 C4          5.1494   -10.1804    85.7839 C.ar       1          -0.1361
      7 C5          4.6677    -9.2552    86.6613 C.ar       1          -0.0385
      8 C6          5.5171    -8.2947    87.2259 C.ar       1          -0.0977
      9 C7          6.8638    -8.2748    86.8965 C.ar       1          -0.0176
     10 C8          7.3662    -9.2243    86.0024 C.ar       1          -0.1760
     11 C9          4.9742    -7.2963    88.1778 C.ar       1          -0.0295
     12 C10         4.9538    -7.5604    89.5475 C.ar       1          -0.0878
     13 C11         4.4352    -6.5921    90.3987 C.ar       1           0.0591
     14 O1          4.3966    -6.8078    91.7400 O.3        1          -0.3225
     15 C12         4.4984    -5.6598    92.5849 C.3        1           0.0274
     16 C13         5.1673    -6.0545    93.9031 C.3        1           0.0438
     17 N3          6.5106    -6.5835    93.6315 N.4        1          -0.6366
     18 H1          7.0641    -5.8758    93.1724 H          1           0.4425
     19 H2          6.9517    -6.8437    94.5010 H          1           0.4361
     20 H3          6.4386    -7.3939    93.0350 H          1           0.4321
     21 C14         4.3279    -7.1275    94.5996 C.3        1          -0.0975
     22 C15         4.9866    -7.5163    95.8981 C.ar       1          -0.1295
     23 C16         5.9111    -8.5437    95.9237 C.ar       1          -0.1404
     24 C17         6.5153    -8.9003    97.1147 C.ar       1          -0.1075
     25 C18         6.1955    -8.2291    98.2801 C.ar       1          -0.1016
     26 C19         5.2717    -7.2012    98.2544 C.ar       1          -0.1051
     27 C20         4.6706    -6.8417    97.0626 C.ar       1          -0.1028
     28 C21         3.9569    -5.4017    89.8661 C.ar       1           0.0310
     29 N4          3.9869    -5.1766    88.5688 N.ar       1          -0.4181
     30 C22         4.4772    -6.0665    87.7165 C.ar       1           0.1785
     31 C23         4.4946    -5.7639    86.2669 C.ar       1          -0.0839
     32 C24         5.6023    -5.1396    85.6950 C.ar       1          -0.0463
     33 C25         5.6132    -4.8599    84.3441 C.ar       1          -0.1553
     34 C26         4.5282    -5.1964    83.5534 C.ar       1          -0.0605
     35 C27         3.4250    -5.8155    84.1095 C.ar       1          -0.2136
     36 C28         3.4022    -6.1083    85.4637 C.ar       1           0.1614
     37 O2          2.3207    -6.7220    86.0103 O.3        1          -0.2937
     38 C29         1.0665    -6.0458    85.9000 C.3        1           0.0975
     39 C30         0.2003    -6.3982    87.0818 C.ar       1          -0.0638
     40 C31        -0.6411    -7.4936    87.0199 C.ar       1          -0.1065
     41 C32        -1.4365    -7.8176    88.1029 C.ar       1          -0.0932
     42 C33        -1.3911    -7.0470    89.2494 C.ar       1          -0.1447
     43 C34        -0.5487    -5.9502    89.3128 C.ar       1           0.0966
     44 F1         -0.5037    -5.1963    90.4329 F          1          -0.1364
     45 C35         0.2515    -5.6296    88.2290 C.ar       1          -0.1273
     46 H4         10.7783    -9.1438    85.1774 H          1           0.0845
     47 H5          9.8155    -7.6741    85.4629 H          1           0.0830
     48 H6         10.1673    -8.7831    86.8099 H          1           0.0819
     49 H7          6.9362   -11.7067    84.0800 H          1           0.4435
     50 H8          4.4834   -10.9149    85.3558 H          1           0.1307
     51 H9          3.6200    -9.2624    86.9237 H          1           0.1281
     52 H10         7.5196    -7.5345    87.3305 H          1           0.1301
     53 H11         5.3315    -8.4942    89.9366 H          1           0.1476
     54 H12         5.0964    -4.8955    92.0887 H          1           0.1137
     55 H13         3.5017    -5.2674    92.7865 H          1           0.0916
     56 H14         5.2449    -5.1789    94.5476 H          1           0.1555
     57 H15         3.3312    -6.7351    94.8011 H          1           0.1255
     58 H16         4.2503    -8.0031    93.9552 H          1           0.1035
     59 H17         6.1610    -9.0680    95.0132 H          1           0.1225
     60 H18         7.2370    -9.7035    97.1348 H          1           0.1323
     61 H19         6.6670    -8.5083    99.2108 H          1           0.1328
     62 H20         5.0215    -6.6770    99.1649 H          1           0.1334
     63 H21         3.9516    -6.0360    97.0418 H          1           0.1309
     64 H22         3.5537    -4.6484    90.5266 H          1           0.1555
     65 H23         6.4506    -4.8747    86.3089 H          1           0.1289
     66 H24         6.4717    -4.3762    83.9018 H          1           0.1281
     67 H25         4.5437    -4.9737    82.4967 H          1           0.1294
     68 H26         2.5816    -6.0755    83.4870 H          1           0.1323
     69 H27         1.2347    -4.9692    85.8808 H          1           0.0772
     70 H28         0.5683    -6.3523    84.9802 H          1           0.0774
     71 H29        -0.6771    -8.0963    86.1244 H          1           0.1315
     72 H30        -2.0938    -8.6730    88.0531 H          1           0.1369
     73 H31        -2.0129    -7.3001    90.0954 H          1           0.1381
     74 H32         0.9124    -4.7769    88.2789 H          1           0.1384
@<TRIPOS>BOND
     1    1    2 1
     2    1   46 1
     3    1   47 1
     4    1   48 1
     5    2   10 1
     6    2    3 2
     7    3    4 1
     8    4    5 1
     9    4   49 1
    10    5   10 ar
    11    5    6 ar
    12    6    7 ar
    13    6   50 1
    14    7    8 ar
    15    7   51 1
    16    8    9 ar
    17    8   11 1
    18    9   10 ar
    19    9   52 1
    20   11   30 ar
    21   11   12 ar
    22   12   13 ar
    23   12   53 1
    24   13   14 1
    25   13   28 ar
    26   14   15 1
    27   15   16 1
    28   15   54 1
    29   15   55 1
    30   16   17 1
    31   16   21 1
    32   16   56 1
    33   17   18 1
    34   17   19 1
    35   17   20 1
    36   21   22 1
    37   21   57 1
    38   21   58 1
    39   22   27 ar
    40   22   23 ar
    41   23   24 ar
    42   23   59 1
    43   24   25 ar
    44   24   60 1
    45   25   26 ar
    46   25   61 1
    47   26   27 ar
    48   26   62 1
    49   27   63 1
    50   28   29 ar
    51   28   64 1
    52   29   30 ar
    53   30   31 1
    54   31   36 ar
    55   31   32 ar
    56   32   33 ar
    57   32   65 1
    58   33   34 ar
    59   33   66 1
    60   34   35 ar
    61   34   67 1
    62   35   36 ar
    63   35   68 1
    64   36   37 1
    65   37   38 1
    66   38   39 1
    67   38   69 1
    68   38   70 1
    69   39   45 ar
    70   39   40 ar
    71   40   41 ar
    72   40   71 1
    73   41   42 ar
    74   41   72 1
    75   42   43 ar
    76   42   73 1
    77   43   44 1
    78   43   45 ar
    79   45   74 1
##########                 Name:              T541676
##########          Protonation:                   95
##########               SMILES:   c1cc(cc(c1)NC(=O)N2CCC[NH+](CC2)CCCCCCNC(=O)/C=C\c3ccc(c(c3)Cl)Cl)C(F)(F)F
##########            Long Name:   ]amino]hexyl]-N-[3-(trifluoromethyl)phenyl]-1,4-diazepan-4-ium-1-carboxamide
##########          FlexRecCode: 1
##########               Number:                   29
##########   Ligand Source File: /raidb/db2/rgc/tcams/tcams-0002135.db2.gz
##########           GlobalRank: 230
##########                 Rank:                    1
##########               Setnum:                   98
##########             Matchnum:                 1592
##########                Cloud:                    1
##########        Electrostatic:           -35.695011
##########        Van der Waals:           -31.972437
##########  Ligand Polar Desolv:             5.601089
########## Ligand Apolar Desolv:            -3.870270
##########      Internal Energy:             0.000000
##########      Receptor Energy: 0.0
########## Receptor Desolvation:             0.000000
########## Receptor Hydrophobic:             0.000000
##########         Total Energy: -65.94
##########        Ligand Charge:             1.000000
##########            Arbitrary:    +999.9990
##########     heavy atom count:   39
##########           pose count:    1
##########        Ligand Energy:             0.000000
# num electro vdwattr vdwrepu polsolv apolsol rdesolv rhydroe totalscore fullpol fullapo
#   1    1.44   -1.04    0.10   -0.40   -0.26    0.00    0.00      -0.16   -0.68   -0.44
#   2   -3.60   -0.96    0.09    1.23   -0.04    0.00    0.00      -3.29    2.43   -0.07
#   3    1.53   -0.56    0.03   -0.35   -0.19    0.00    0.00       0.46   -0.87   -0.48
#   4    0.23   -1.97    1.06   -0.39   -0.24    0.00    0.00      -1.31   -0.78   -0.47
#   5    1.29   -1.54    0.29   -0.60   -0.17    0.00    0.00      -0.72   -1.31   -0.37
#   6    0.80   -1.47    0.22   -0.40   -0.17    0.00    0.00      -1.02   -1.07   -0.44
#   7   -1.99   -1.59    0.20    0.94   -0.33    0.00    0.00      -2.76    1.93   -0.67
#   8   10.33   -1.49    0.18   -4.88    0.77    0.00    0.00       4.91  -10.57    1.67
#   9   -8.94   -1.30    0.12    4.38   -0.79    0.00    0.00      -6.53   11.21   -2.03
#  10    2.29   -2.52    0.91   -3.07    0.14    0.00    0.00      -2.25   -7.28    0.32
#  11   12.14   -0.98    0.05   -4.79    0.51    0.00    0.00       6.94  -13.60    1.44
#  12   -1.76   -0.63    0.03    0.68   -0.16    0.00    0.00      -1.83    1.98   -0.46
#  13    3.16   -0.42    0.01   -1.05   -0.06    0.00    0.00       1.64   -4.30   -0.24
#  14    0.15   -0.39    0.02   -0.04   -0.07    0.00    0.00      -0.32   -0.19   -0.36
#  15   10.56   -0.85    0.27   -2.72    0.04    0.00    0.00       7.31  -11.42    0.18
#  16  -17.17   -0.03    0.00    3.56    0.10    0.00    0.00     -13.55   16.47    0.44
#  17    0.45   -0.44    0.06    0.02   -0.07    0.00    0.00       0.02    0.08   -0.35
#  18    3.07   -0.44    0.04   -0.89   -0.04    0.00    0.00       1.74   -4.25   -0.20
#  19    1.35   -0.22    0.01   -0.38   -0.03    0.00    0.00       0.73   -2.84   -0.22
#  20    0.41   -0.31    0.02   -0.41   -0.04    0.00    0.00      -0.33   -2.40   -0.22
#  21    0.30   -0.24    0.01   -0.30   -0.03    0.00    0.00      -0.26   -2.01   -0.22
#  22   -0.19   -0.43    0.04    0.30   -0.09    0.00    0.00      -0.37    1.40   -0.42
#  23    0.88   -0.47    0.01   -1.69    0.47    0.00    0.00      -0.80   -8.44    2.33
#  24   -0.68   -0.60    0.04    0.95   -0.13    0.00    0.00      -0.41    4.32   -0.58
#  25    0.78   -1.09    0.44   -0.57    0.07    0.00    0.00      -0.37   -2.26    0.29
#  26    0.27   -0.72    0.06   -0.57   -0.13    0.00    0.00      -1.08   -2.05   -0.45
#  27    0.02   -0.57    0.05   -0.11   -0.10    0.00    0.00      -0.70   -0.48   -0.44
#  28    0.08   -0.25    0.01   -0.03   -0.03    0.00    0.00      -0.23   -0.25   -0.31
#  29    0.03   -0.15    0.00   -0.01   -0.02    0.00    0.00      -0.15   -0.14   -0.31
#  30    0.09   -0.10    0.00   -0.02   -0.02    0.00    0.00      -0.04   -0.42   -0.46
#  31    0.01   -0.15    0.00   -0.01   -0.02    0.00    0.00      -0.17   -0.12   -0.30
#  32    0.02   -0.37    0.03   -0.01   -0.09    0.00    0.00      -0.42   -0.09   -0.95
#  33    0.04   -0.25    0.01   -0.01   -0.03    0.00    0.00      -0.25   -0.13   -0.30
#  34    0.02   -1.73    0.93   -0.02   -0.18    0.00    0.00      -0.98   -0.08   -0.95
#  35    0.11   -0.26    0.01   -0.04   -0.05    0.00    0.00      -0.23   -0.40   -0.45
#  36    1.40   -0.92    0.29   -0.10   -0.11    0.00    0.00       0.55   -0.33   -0.39
#  37   -3.42   -0.87    0.12    0.91   -0.17    0.00    0.00      -3.43    2.28   -0.42
#  38    1.65   -2.27    0.43   -0.58   -0.24    0.00    0.00      -0.99   -1.01   -0.41
#  39    1.69   -2.67    0.97   -0.55   -0.26    0.00    0.00      -0.82   -0.97   -0.47
#  40    0.84   -2.00    0.62   -0.48   -0.23    0.00    0.00      -1.25   -0.90   -0.44
#  41   -0.74   -0.24    0.02    0.48   -0.07    0.00    0.00      -0.55    2.02   -0.28
#  42   -7.04   -0.04    0.00    2.86    0.14    0.00    0.00      -4.08    8.55    0.41
#  43   -1.11   -0.24    0.02    0.51   -0.05    0.00    0.00      -0.85    2.18   -0.20
#  44   -2.28   -0.27    0.03    0.50   -0.07    0.00    0.00      -2.10    1.87   -0.28
#  45   -2.21   -0.10    0.00    0.38   -0.03    0.00    0.00      -1.96    4.01   -0.28
#  46   -2.66   -0.16    0.01    0.77   -0.04    0.00    0.00      -2.09    4.49   -0.25
#  47   -0.76   -0.20    0.05    0.45   -0.03    0.00    0.00      -0.50    3.11   -0.24
#  48   -1.49   -0.08    0.00    0.44   -0.02    0.00    0.00      -1.14    5.79   -0.23
#  49   -3.68   -0.19    0.03    0.89   -0.04    0.00    0.00      -2.99    5.20   -0.26
#  50   -1.68   -0.07    0.00    0.26   -0.02    0.00    0.00      -1.50    4.34   -0.27
#  51   -1.23   -0.08    0.00    0.24   -0.02    0.00    0.00      -1.09    3.17   -0.23
#  52   -2.96   -0.37    0.13    0.83   -0.07    0.00    0.00      -2.44    3.23   -0.28
#  53   -1.15   -0.07    0.00    0.12   -0.02    0.00    0.00      -1.12    1.77   -0.28
#  54   -0.54   -0.03    0.00    0.06   -0.01    0.00    0.00      -0.52    1.69   -0.28
#  55   -0.25   -0.24    0.05    0.21   -0.05    0.00    0.00      -0.28    1.11   -0.28
#  56   -0.19   -0.06    0.00    0.06   -0.02    0.00    0.00      -0.19    1.16   -0.28
#  57   -0.13   -0.03    0.00    0.05   -0.01    0.00    0.00      -0.12    1.47   -0.28
#  58   -0.27   -0.09    0.00    0.13   -0.03    0.00    0.00      -0.25    1.36   -0.28
#  59   -0.10   -0.38    0.16    0.06   -0.07    0.00    0.00      -0.33    0.25   -0.28
#  60   -0.11   -0.09    0.00    0.04   -0.03    0.00    0.00      -0.18    0.39   -0.28
#  61   -0.43   -0.01    0.00    0.45    0.04    0.00    0.00       0.06    6.67    0.56
#  62   -0.14   -0.34    0.17    0.88   -0.08    0.00    0.00       0.49    3.16   -0.28
#  63   -0.26   -0.19    0.04    0.49   -0.06    0.00    0.00       0.02    2.41   -0.28
#  64   -0.12   -0.03    0.00    0.03   -0.01    0.00    0.00      -0.13    1.03   -0.25
#  65   -0.10   -0.01    0.00    0.02   -0.01    0.00    0.00      -0.10    0.83   -0.28
#  66   -0.27   -0.06    0.00    0.06   -0.02    0.00    0.00      -0.28    0.97   -0.28
#  67   -2.49   -0.17    0.02    0.47   -0.05    0.00    0.00      -2.22    2.86   -0.28
#  68   -5.81   -0.67    0.68    2.01   -0.08    0.00    0.00      -3.87    6.26   -0.26
#  69   -3.97   -0.36    0.09    1.53   -0.09    0.00    0.00      -2.79    4.71   -0.28
#  70   -3.78   -0.32    0.04    0.47   -0.09    0.00    0.00      -3.69    1.21   -0.24
#  71   -3.30   -0.58    0.10    0.91   -0.12    0.00    0.00      -2.99    1.59   -0.21
#  72   -2.98   -0.94    0.80    1.00   -0.16    0.00    0.00      -2.27    1.77   -0.28
#  73   -1.16   -0.43    0.12    0.46   -0.12    0.00    0.00      -1.13    0.97   -0.25

@<TRIPOS>MOLECULE
          T541676        95
   73    75     0     0     0



@<TRIPOS>ATOM
      1 F1          8.8368   -13.0812    97.2278 F          1          -0.1717
      2 C1          8.0106   -12.1130    96.6474 C.3        1           0.5087
      3 F2          8.3987   -11.9040    95.3196 F          1          -0.1747
      4 F3          6.6827   -12.5517    96.6815 F          1          -0.1740
      5 C2          8.1330   -10.8222    97.4155 C.ar       1          -0.1586
      6 C3          7.4008    -9.7167    97.0283 C.ar       1          -0.0943
      7 C4          7.5141    -8.5279    97.7365 C.ar       1           0.1472
      8 N1          6.7734    -7.4063    97.3470 N.am       1          -0.6776
      9 C5          5.5752    -7.5639    96.7505 C.2        1           0.7035
     10 O1          4.8885    -8.5326    97.0122 O.2        1          -0.5513
     11 N2          5.1382    -6.6479    95.8638 N.am       1          -0.6359
     12 C6          3.6848    -6.4209    95.7324 C.3        1           0.0943
     13 C7          3.2804    -6.2623    94.2554 C.3        1          -0.1574
     14 C8          4.0575    -7.2488    93.4121 C.3        1          -0.0097
     15 N3          5.2641    -6.6018    92.9019 N.4        1          -0.3669
     16 H1          5.0574    -5.6284    92.7355 H          1           0.4176
     17 C9          5.6167    -7.2245    91.6190 C.3        1          -0.0199
     18 C10         4.7408    -6.6385    90.5099 C.3        1          -0.1482
     19 C11         5.1080    -7.2871    89.1737 C.3        1          -0.1168
     20 C12         4.2320    -6.7012    88.0645 C.3        1          -0.1176
     21 C13         2.7601    -6.9771    88.3777 C.3        1          -0.1334
     22 C14         1.8841    -6.3911    87.2686 C.3        1           0.1190
     23 N4          0.4747    -6.6553    87.5686 N.am       1          -0.7301
     24 C15        -0.0737    -6.1777    88.7034 C.2        1           0.5384
     25 O2          0.6019    -5.5269    89.4786 O.2        1          -0.5233
     26 C16        -1.4820    -6.4415    89.0032 C.2        1          -0.2138
     27 C17        -1.9187    -7.7114    89.1266 C.2        1          -0.0134
     28 C18        -0.9521    -8.8197    89.1816 C.ar       1          -0.0577
     29 C19        -0.9868    -9.8309    88.2156 C.ar       1          -0.0277
     30 C20        -0.0785   -10.8659    88.2725 C.ar       1          -0.1092
     31 C21         0.8680   -10.9069    89.2833 C.ar       1          -0.0184
     32 Cl1         2.0085   -12.2142    89.3465 Cl         1          -0.0485
     33 C22         0.9089    -9.9085    90.2443 C.ar       1          -0.0398
     34 Cl2         2.0994    -9.9692    91.5063 Cl         1          -0.0473
     35 C23         0.0090    -8.8637    90.1964 C.ar       1          -0.0788
     36 C24         6.3874    -6.6795    93.7550 C.3        1          -0.0465
     37 C25         6.1111    -5.9170    95.0780 C.3        1           0.1145
     38 C26         8.3640    -8.4543    98.8327 C.ar       1          -0.0900
     39 C27         9.0932    -9.5630    99.2146 C.ar       1          -0.0978
     40 C28         8.9738   -10.7473    98.5106 C.ar       1          -0.0789
     41 H2          6.7412    -9.7770    96.1752 H          1           0.1376
     42 H3          7.1224    -6.5154    97.5062 H          1           0.4092
     43 H4          3.1502    -7.2689    96.1605 H          1           0.0924
     44 H5          3.4133    -5.5164    96.2767 H          1           0.0952
     45 H6          2.2128    -6.4542    94.1483 H          1           0.1285
     46 H7          3.5023    -5.2476    93.9248 H          1           0.0949
     47 H8          4.3355    -8.1088    94.0213 H          1           0.1283
     48 H9          3.4402    -7.5785    92.5762 H          1           0.1386
     49 H10         6.6654    -7.0280    91.3957 H          1           0.1335
     50 H11         5.4540    -8.3006    91.6804 H          1           0.1304
     51 H12         3.6921    -6.8352    90.7331 H          1           0.0868
     52 H13         4.9036    -5.5625    90.4484 H          1           0.0892
     53 H14         6.1567    -7.0905    88.9504 H          1           0.0759
     54 H15         4.9452    -8.3631    89.2350 H          1           0.0748
     55 H16         4.3950    -5.6252    88.0031 H          1           0.0704
     56 H17         4.4936    -7.1632    87.1126 H          1           0.0711
     57 H18         2.5971    -8.0529    88.4392 H          1           0.0724
     58 H19         2.4985    -6.5150    89.3297 H          1           0.0719
     59 H20         2.0469    -5.3150    87.2073 H          1           0.0679
     60 H21         2.1457    -6.8530    86.3166 H          1           0.0682
     61 H22        -0.0638    -7.1738    86.9506 H          1           0.4015
     62 H23        -2.1714    -5.6193    89.1257 H          1           0.1387
     63 H24        -2.9777    -7.9151    89.1850 H          1           0.1461
     64 H25        -1.7243    -9.8008    87.4270 H          1           0.1265
     65 H26        -0.1049   -11.6471    87.5272 H          1           0.1397
     66 H27         0.0443    -8.0841    90.9428 H          1           0.1429
     67 H28         6.6002    -7.7250    93.9775 H          1           0.1311
     68 H29         7.2499    -6.2359    93.2575 H          1           0.1464
     69 H30         5.7214    -4.9247    94.8508 H          1           0.1029
     70 H31         7.0365    -5.8205    95.6457 H          1           0.1340
     71 H32         8.4545    -7.5309    99.3854 H          1           0.1505
     72 H33         9.7542    -9.5064   100.0669 H          1           0.1433
     73 H34         9.5416   -11.6144    98.8142 H          1           0.1453
@<TRIPOS>BOND
     1    1    2 1
     2    2    3 1
     3    2    4 1
     4    2    5 1
     5    5   40 ar
     6    5    6 ar
     7    6    7 ar
     8    6   41 1
     9    7    8 1
    10    7   38 ar
    11    8    9 am
    12    8   42 1
    13    9   10 2
    14    9   11 am
    15   11   37 1
    16   11   12 1
    17   12   13 1
    18   12   43 1
    19   12   44 1
    20   13   14 1
    21   13   45 1
    22   13   46 1
    23   14   15 1
    24   14   47 1
    25   14   48 1
    26   15   16 1
    27   15   17 1
    28   15   36 1
    29   17   18 1
    30   17   49 1
    31   17   50 1
    32   18   19 1
    33   18   51 1
    34   18   52 1
    35   19   20 1
    36   19   53 1
    37   19   54 1
    38   20   21 1
    39   20   55 1
    40   20   56 1
    41   21   22 1
    42   21   57 1
    43   21   58 1
    44   22   23 1
    45   22   59 1
    46   22   60 1
    47   23   24 am
    48   23   61 1
    49   24   25 2
    50   24   26 1
    51   26   27 2
    52   26   62 1
    53   27   28 1
    54   27   63 1
    55   28   35 ar
    56   28   29 ar
    57   29   30 ar
    58   29   64 1
    59   30   31 ar
    60   30   65 1
    61   31   32 1
    62   31   33 ar
    63   33   34 1
    64   33   35 ar
    65   35   66 1
    66   36   37 1
    67   36   67 1
    68   36   68 1
    69   37   69 1
    70   37   70 1
    71   38   39 ar
    72   38   71 1
    73   39   40 ar
    74   39   72 1
    75   40   73 1
##########                 Name:              T541450
##########          Protonation:                   43
##########               SMILES:   c1ccc(c(c1)CNc2[nH+]c(nc(n2)N3CC[NH2+]CC3)NCCCCCCO)c4ccc(cc4)C(F)(F)F
##########            Long Name:   omethyl)phenyl]phenyl]methylamino]-1,3,5-triazin-1-ium-2-yl]amino]hexan-1-ol
##########          FlexRecCode: 1
##########               Number:                  240
##########   Ligand Source File: /raidb/db2/rgc/tcams/tcams-0002149.db2.gz
##########           GlobalRank: 230
##########                 Rank:                    1
##########               Setnum:                  233
##########             Matchnum:                 1757
##########                Cloud:                    1
##########        Electrostatic:           -41.250591
##########        Van der Waals:           -26.030127
##########  Ligand Polar Desolv:             6.475890
########## Ligand Apolar Desolv:            -5.134541
##########      Internal Energy:             0.000000
##########      Receptor Energy: 0.0
########## Receptor Desolvation:             0.000000
########## Receptor Hydrophobic:             0.000000
##########         Total Energy: -65.94
##########        Ligand Charge:             2.000000
##########            Arbitrary:    +999.9990
##########     heavy atom count:   38
##########           pose count:    1
##########        Ligand Energy:             0.000000
# num electro vdwattr vdwrepu polsolv apolsol rdesolv rhydroe totalscore fullpol fullapo
#   1    0.05   -0.22    0.01   -0.75    0.20    0.00    0.00      -0.71   -6.55    1.75
#   2   -0.05   -0.27    0.01    0.11   -0.02    0.00    0.00      -0.23    0.63   -0.14
#   3    0.21   -0.51    0.08   -0.41   -0.05    0.00    0.00      -0.70   -1.96   -0.24
#   4    0.42   -0.49    0.04   -0.59   -0.06    0.00    0.00      -0.68   -2.34   -0.22
#   5    1.06   -0.60    0.09   -0.79   -0.06    0.00    0.00      -0.31   -2.87   -0.22
#   6    2.20   -0.58    0.04   -1.10   -0.07    0.00    0.00       0.49   -3.57   -0.22
#   7   -1.86   -0.61    0.06    0.88   -0.11    0.00    0.00      -1.64    2.92   -0.38
#   8   19.78   -2.44    1.86   -7.44    0.59    0.00    0.00      12.34  -21.74    1.73
#   9  -18.55   -1.29    0.33    6.34   -1.33    0.00    0.00     -14.50   23.02   -4.81
#  10    9.65   -0.43    0.02   -3.54    0.31    0.00    0.00       6.01  -20.86    1.84
#  11   -8.14   -0.33    0.02    2.88   -0.62    0.00    0.00      -6.20   21.63   -4.68
#  12    8.81   -0.46    0.02   -3.74    0.33    0.00    0.00       4.97  -20.68    1.84
#  13  -18.07   -1.03    0.24    5.58   -1.16    0.00    0.00     -14.45   23.12   -4.81
#  14   17.41   -1.00    0.21   -5.29    0.42    0.00    0.00      11.75  -21.33    1.68
#  15   -1.67   -0.50    0.05    1.01   -0.08    0.00    0.00      -1.19    4.10   -0.33
#  16    1.57   -0.91    0.12   -0.53   -0.10    0.00    0.00       0.15   -1.95   -0.37
#  17    1.52   -0.73    0.03   -0.57   -0.12    0.00    0.00       0.14   -2.15   -0.45
#  18    2.21   -1.07    0.06   -1.20   -0.19    0.00    0.00      -0.19   -3.01   -0.47
#  19    1.59   -2.11    0.54   -1.34   -0.23    0.00    0.00      -1.54   -2.70   -0.47
#  20    1.26   -2.28    0.63   -1.25   -0.21    0.00    0.00      -1.85   -2.69   -0.46
#  21    0.37   -1.36    0.19   -0.31   -0.14    0.00    0.00      -1.25   -0.84   -0.38
#  22    0.18   -1.46    0.20   -0.02   -0.13    0.00    0.00      -1.23   -0.06   -0.33
#  23    0.12   -3.23    1.78   -0.93   -0.19    0.00    0.00      -2.45   -2.30   -0.46
#  24    0.27   -2.30    0.91   -0.68   -0.19    0.00    0.00      -1.99   -1.61   -0.44
#  25    1.74   -1.38    0.17   -1.75   -0.16    0.00    0.00      -1.38   -4.09   -0.38
#  26    0.94   -1.91    0.58   -0.76   -0.20    0.00    0.00      -1.35   -1.70   -0.44
#  27    1.76   -1.47    0.20   -1.06   -0.16    0.00    0.00      -0.73   -2.52   -0.37
#  28   -5.00   -1.06    0.14    4.46   -0.04    0.00    0.00      -1.49    8.55   -0.07
#  29    1.30   -0.98    0.08   -1.91   -0.28    0.00    0.00      -1.79   -3.25   -0.48
#  30    2.00   -1.41    0.78   -1.37   -0.20    0.00    0.00      -0.20   -3.11   -0.45
#  31    1.84   -1.75    2.08   -1.75   -0.26    0.00    0.00       0.16   -3.05   -0.45
#  32   23.64   -3.02    3.40   -6.66    0.31    0.00    0.00      17.66  -21.46    0.99
#  33  -27.07   -0.34    0.31    6.63    0.14    0.00    0.00     -20.32   17.11    0.36
#  34    3.56   -0.18    0.00   -1.56    0.13    0.00    0.00       1.96  -20.07    1.70
#  35   -0.36   -0.08    0.00    0.14   -0.02    0.00    0.00      -0.32    2.86   -0.48
#  36    0.05   -0.09    0.00    0.02   -0.03    0.00    0.00      -0.05    0.33   -0.48
#  37    1.09   -0.16    0.00   -1.87    0.08    0.00    0.00      -0.87  -22.21    0.89
#  38   -0.46    0.00    0.00    0.51    0.01    0.00    0.00       0.06   22.27    0.56
#  39   -0.91    0.00    0.00    1.15    0.03    0.00    0.00       0.26   22.85    0.57
#  40    0.11   -0.23    0.01    0.04   -0.07    0.00    0.00      -0.14    0.30   -0.48
#  41   -0.37   -0.17    0.01    0.29   -0.05    0.00    0.00      -0.29    2.83   -0.48
#  42   -0.10    0.00    0.00    0.16    0.04    0.00    0.00       0.10    5.50    1.24
#  43   -0.03   -0.12    0.01    0.09   -0.03    0.00    0.00      -0.08    0.77   -0.28
#  44   -0.03   -0.06    0.00    0.04   -0.01    0.00    0.00      -0.07    0.78   -0.28
#  45   -0.17   -0.44    0.27    0.19   -0.07    0.00    0.00      -0.22    0.75   -0.28
#  46   -0.12   -0.10    0.01    0.07   -0.03    0.00    0.00      -0.16    0.74   -0.28
#  47   -0.13   -0.08    0.00    0.10   -0.02    0.00    0.00      -0.13    1.29   -0.28
#  48   -0.73   -0.26    0.05    0.33   -0.07    0.00    0.00      -0.69    1.31   -0.28
#  49   -1.67   -0.56    0.49    0.56   -0.08    0.00    0.00      -1.26    2.00   -0.28
#  50   -0.19   -0.09    0.00    0.21   -0.03    0.00    0.00      -0.10    1.95   -0.28
#  51   -0.99   -0.11    0.00    0.26   -0.03    0.00    0.00      -0.87    2.16   -0.28
#  52   -1.71   -0.33    0.05    0.77   -0.10    0.00    0.00      -1.31    2.22   -0.28
#  53   -2.68   -0.24    0.02    1.27   -0.08    0.00    0.00      -1.70    4.45   -0.27
#  54   -1.46   -0.08    0.00    0.29   -0.02    0.00    0.00      -1.27    4.37   -0.27
#  55  -18.24   -0.15    0.04    5.88    0.23    0.00    0.00     -12.24   14.81    0.58
#  56  -16.72   -0.03    0.00    2.57    0.11    0.00    0.00     -14.06   13.90    0.58
#  57   -0.46   -0.21    0.05    0.68   -0.03    0.00    0.00       0.04    4.48   -0.18
#  58   -1.28   -0.16    0.01    0.92   -0.04    0.00    0.00      -0.55    5.73   -0.26
#  59   -2.63   -0.10    0.00    0.46   -0.03    0.00    0.00      -2.30    4.92   -0.28
#  60   -3.40   -0.21    0.01    0.60   -0.07    0.00    0.00      -3.08    2.29   -0.28
#  61   -3.02   -0.82    0.84    0.82   -0.14    0.00    0.00      -2.31    1.64   -0.28
#  62   -1.66   -0.78    0.47    0.99   -0.14    0.00    0.00      -1.12    2.02   -0.28
#  63    1.35   -1.82    4.49    1.65   -0.13    0.00    0.00       5.54    3.67   -0.28
#  64   -0.40   -0.52    0.17    1.18   -0.11    0.00    0.00       0.32    2.88   -0.27
#  65   -2.24   -0.82    0.89    1.32   -0.10    0.00    0.00      -0.95    3.61   -0.27
#  66   -2.54   -0.34    0.06    1.72   -0.08    0.00    0.00      -1.18    5.50   -0.24
#  67   -0.29   -0.01    0.00    0.12   -0.01    0.00    0.00      -0.20    5.31   -0.28
#  68   -0.72   -0.02    0.00    0.11   -0.01    0.00    0.00      -0.64    3.89   -0.24
#  69   -0.13   -0.02    0.00    0.17   -0.01    0.00    0.00       0.02    8.34   -0.28
#  70   -0.34   -0.04    0.00    0.20   -0.01    0.00    0.00      -0.19    5.29   -0.28
#  71   -1.14   -0.12    0.01    0.96   -0.03    0.00    0.00      -0.32    8.28   -0.28
#  72   -0.79   -0.09    0.00    0.39   -0.02    0.00    0.00      -0.50    5.22   -0.28
#  73   -0.62   -0.08    0.01    0.30   -0.02    0.00    0.00      -0.42    3.77   -0.24
#  74   -0.16   -0.04    0.00    0.22   -0.01    0.00    0.00       0.02    5.28   -0.28

@<TRIPOS>MOLECULE
          T541450        43
   74    77     0     0     0



@<TRIPOS>ATOM
      1 O1         15.4656    -8.4080    87.9266 O.3        1          -0.5762
      2 C1         15.4220    -7.3001    87.0251 C.3        1           0.0726
      3 C2         13.9721    -7.0321    86.6161 C.3        1          -0.1229
      4 C3         13.1424    -6.7100    87.8606 C.3        1          -0.1185
      5 C4         11.6926    -6.4421    87.4514 C.3        1          -0.1169
      6 C5         10.8628    -6.1200    88.6959 C.3        1          -0.1324
      7 C6          9.4131    -5.8521    88.2869 C.3        1           0.0815
      8 N1          8.6186    -5.5437    89.4785 N.pl3      1          -0.6478
      9 C7          7.9924    -6.5594    90.1723 C.ar       1           0.6991
     10 N2          8.1145    -7.8175    89.7619 N.ar       1          -0.6238
     11 C8          7.5117    -8.7963    90.4302 C.ar       1           0.6927
     12 N3          6.7861    -8.5160    91.5085 N.ar       1          -0.6218
     13 C9          6.6638    -7.2575    91.9184 C.ar       1           0.6993
     14 N4          5.9111    -6.9665    93.0380 N.pl3      1          -0.6404
     15 C10         5.6150    -8.0170    94.0151 C.3        1           0.1272
     16 C11         4.7845    -7.4430    95.1339 C.ar       1          -0.1210
     17 C12         3.7116    -6.6227    94.8480 C.ar       1          -0.0856
     18 C13         2.9485    -6.0952    95.8738 C.ar       1          -0.1062
     19 C14         3.2551    -6.3865    97.1910 C.ar       1          -0.0847
     20 C15         4.3252    -7.2058    97.4882 C.ar       1          -0.0970
     21 C16         5.0946    -7.7438    96.4584 C.ar       1          -0.0357
     22 C17         6.2432    -8.6295    96.7716 C.ar       1          -0.0207
     23 C18         6.0585   -10.0074    96.8657 C.ar       1          -0.1049
     24 C19         7.1304   -10.8265    97.1568 C.ar       1          -0.0610
     25 C20         8.3864   -10.2819    97.3550 C.ar       1          -0.1766
     26 C21         8.5754    -8.9147    97.2633 C.ar       1          -0.0681
     27 C22         7.5116    -8.0869    96.9670 C.ar       1          -0.1209
     28 C23         9.5530   -11.1814    97.6726 C.3        1           0.5062
     29 F1          9.1194   -12.5110    97.7127 F          1          -0.1830
     30 F2         10.5333   -11.0403    96.6846 F          1          -0.1707
     31 F3         10.0894   -10.8283    98.9155 F          1          -0.1698
     32 N5          7.2714    -6.2797    91.2534 N.ar       1          -0.6325
     33 H1          7.1858    -5.3618    91.5550 H          1           0.4412
     34 N6          7.6382   -10.1029    90.0043 N.pl3      1          -0.5673
     35 C24         8.4404   -10.4372    88.8174 C.3        1           0.0921
     36 C25         9.4079   -11.5664    89.1872 C.3        1          -0.0220
     37 N7          8.6514   -12.6946    89.7450 N.4        1          -0.5087
     38 H2          7.9434   -12.9819    89.0860 H          1           0.4333
     39 H3          9.2791   -13.4652    89.9196 H          1           0.4428
     40 C26         8.0118   -12.2940    91.0045 C.3        1          -0.0222
     41 C27         6.9797   -11.2015    90.7279 C.3        1           0.0914
     42 H4         15.1169    -9.2304    87.5561 H          1           0.3867
     43 H5         15.8303    -6.4165    87.5153 H          1           0.0458
     44 H6         16.0130    -7.5295    86.1385 H          1           0.0457
     45 H7         13.9388    -6.1871    85.9285 H          1           0.0711
     46 H8         13.5637    -7.9159    86.1258 H          1           0.0713
     47 H9         13.1756    -7.5552    88.5481 H          1           0.0689
     48 H10        13.5507    -5.8265    88.3509 H          1           0.0687
     49 H11        11.6593    -5.5970    86.7638 H          1           0.0724
     50 H12        11.2841    -7.3257    86.9612 H          1           0.0726
     51 H13        10.8961    -6.9651    89.3836 H          1           0.0857
     52 H14        11.2712    -5.2363    89.1862 H          1           0.0853
     53 H15         9.3797    -5.0071    87.5992 H          1           0.0916
     54 H16         9.0046    -6.7359    87.7966 H          1           0.0920
     55 H17         8.5325    -4.6257    89.7798 H          1           0.4466
     56 H18         5.5781    -6.0662    93.1779 H          1           0.4461
     57 H19         5.0629    -8.8209    93.5282 H          1           0.1011
     58 H20         6.5477    -8.4102    94.4197 H          1           0.1004
     59 H21         3.4678    -6.3921    93.8215 H          1           0.1328
     60 H22         2.1105    -5.4534    95.6457 H          1           0.1381
     61 H23         2.6561    -5.9717    97.9883 H          1           0.1394
     62 H24         4.5637    -7.4321    98.5170 H          1           0.1363
     63 H25         5.0782   -10.4336    96.7114 H          1           0.1424
     64 H26         6.9883   -11.8946    97.2302 H          1           0.1432
     65 H27         9.5581    -8.4948    97.4193 H          1           0.1407
     66 H28         7.6611    -7.0199    96.8912 H          1           0.1377
     67 H29         7.7837   -10.7667    88.0122 H          1           0.1134
     68 H30         9.0049    -9.5612    88.4982 H          1           0.1479
     69 H31         9.9433   -11.8929    88.2958 H          1           0.1585
     70 H32        10.1214   -11.2056    89.9281 H          1           0.1390
     71 H33         7.5183   -13.1568    91.4520 H          1           0.1587
     72 H34         8.7675   -11.9111    91.6902 H          1           0.1389
     73 H35         6.5790   -10.8305    91.6711 H          1           0.1480
     74 H36         6.1729   -11.6095    90.1189 H          1           0.1130
@<TRIPOS>BOND
     1    1    2 1
     2    1   42 1
     3    2    3 1
     4    2   43 1
     5    2   44 1
     6    3    4 1
     7    3   45 1
     8    3   46 1
     9    4    5 1
    10    4   47 1
    11    4   48 1
    12    5    6 1
    13    5   49 1
    14    5   50 1
    15    6    7 1
    16    6   51 1
    17    6   52 1
    18    7    8 1
    19    7   53 1
    20    7   54 1
    21    8    9 1
    22    8   55 1
    23    9   32 ar
    24    9   10 ar
    25   10   11 ar
    26   11   12 ar
    27   11   34 1
    28   12   13 ar
    29   13   14 1
    30   13   32 ar
    31   14   15 1
    32   14   56 1
    33   15   16 1
    34   15   57 1
    35   15   58 1
    36   16   21 ar
    37   16   17 ar
    38   17   18 ar
    39   17   59 1
    40   18   19 ar
    41   18   60 1
    42   19   20 ar
    43   19   61 1
    44   20   21 ar
    45   20   62 1
    46   21   22 1
    47   22   27 ar
    48   22   23 ar
    49   23   24 ar
    50   23   63 1
    51   24   25 ar
    52   24   64 1
    53   25   26 ar
    54   25   28 1
    55   26   27 ar
    56   26   65 1
    57   27   66 1
    58   28   29 1
    59   28   30 1
    60   28   31 1
    61   32   33 1
    62   34   41 1
    63   34   35 1
    64   35   36 1
    65   35   67 1
    66   35   68 1
    67   36   37 1
    68   36   69 1
    69   36   70 1
    70   37   38 1
    71   37   39 1
    72   37   40 1
    73   40   41 1
    74   40   71 1
    75   40   72 1
    76   41   73 1
    77   41   74 1
##########                 Name:              T526008
##########          Protonation:                  100
##########               SMILES:   c1c(cc(cc1NC(=O)Nc2cc(cc(c2)Cl)C(=[NH2+])N)Cl)C(=[NH2+])N
##########            Long Name:   e)methyl]-5-chloro-phenyl]carbamoylamino]-5-chloro-phenyl]methylene]ammonium
##########          FlexRecCode: 1
##########               Number:                  293
##########   Ligand Source File: /raidb/db2/rgc/tcams/tcams-0000110.db2.gz
##########           GlobalRank: 231
##########                 Rank:                    1
##########               Setnum:                   43
##########             Matchnum:                 4402
##########                Cloud:                    1
##########        Electrostatic:           -58.555862
##########        Van der Waals:           -18.835751
##########  Ligand Polar Desolv:            12.046002
########## Ligand Apolar Desolv:            -0.571517
##########      Internal Energy:             0.000000
##########      Receptor Energy: 0.0
########## Receptor Desolvation:             0.000000
########## Receptor Hydrophobic:             0.000000
##########         Total Energy: -65.92
##########        Ligand Charge:             2.000000
##########            Arbitrary:    +999.9990
##########     heavy atom count:   24
##########           pose count:    1
##########        Ligand Energy:             0.000000
# num electro vdwattr vdwrepu polsolv apolsol rdesolv rhydroe totalscore fullpol fullapo
#   1   27.27   -2.56    0.81  -13.07    0.41    0.00    0.00      12.87  -27.71    0.87
#   2  -17.10   -1.33    0.15    8.68   -0.86    0.00    0.00     -10.46   22.38   -2.23
#   3   23.41   -2.42    1.29  -10.59    0.33    0.00    0.00      12.02  -28.24    0.87
#   4  -19.55   -0.15    0.05    6.99    0.18    0.00    0.00     -12.49   17.61    0.45
#   5  -11.52   -0.02    0.00    4.10    0.13    0.00    0.00      -7.31   18.34    0.59
#   6    2.22   -0.67    0.03   -0.72   -0.11    0.00    0.00       0.75   -2.61   -0.41
#   7    0.97   -0.39    0.01   -0.29   -0.06    0.00    0.00       0.25   -1.90   -0.38
#   8   -1.51   -0.23    0.00    0.43   -0.06    0.00    0.00      -1.36    4.88   -0.68
#   9    4.73   -0.18    0.00   -1.46    0.13    0.00    0.00       3.23  -19.74    1.70
#  10   -7.22   -0.39    0.03    2.82   -0.27    0.00    0.00      -5.02   21.05   -2.02
#  11    9.10   -0.84    0.16   -3.77    0.06    0.00    0.00       4.71  -17.36    0.29
#  12    4.91   -0.35    0.02   -2.58    0.22    0.00    0.00       2.22  -19.73    1.70
#  13   -1.48   -0.69    0.10    0.99   -0.14    0.00    0.00      -1.22    4.93   -0.68
#  14    0.98   -0.86    0.15   -0.46   -0.09    0.00    0.00      -0.28   -1.92   -0.37
#  15    1.62   -0.95    0.12   -0.68   -0.11    0.00    0.00       0.00   -2.53   -0.40
#  16    0.42   -1.28    0.26   -0.68   -0.13    0.00    0.00      -1.41   -2.20   -0.43
#  17    0.04   -1.57    0.45   -0.43   -0.09    0.00    0.00      -1.60   -1.37   -0.29
#  18    0.01   -5.52    3.63   -1.09   -0.43    0.00    0.00      -3.40   -2.49   -0.98
#  19    0.38   -0.99    0.17   -0.75   -0.12    0.00    0.00      -1.31   -2.92   -0.45
#  20  -13.76   -0.97    0.09    6.91   -0.67    0.00    0.00      -8.40   22.28   -2.17
#  21   29.18   -2.40    2.56   -9.45    0.30    0.00    0.00      20.19  -27.54    0.86
#  22   14.91   -1.09    0.09  -10.68    0.33    0.00    0.00       3.55  -28.14    0.86
#  23   -6.19   -0.02    0.00    4.03    0.13    0.00    0.00      -2.04   18.30    0.59
#  24  -10.56   -0.03    0.00    4.36    0.13    0.00    0.00      -6.09   17.78    0.52
#  25    0.23   -0.21    0.00   -0.23   -0.04    0.00    0.00      -0.24   -2.92   -0.45
#  26    0.03   -0.38    0.01   -0.23   -0.05    0.00    0.00      -0.62   -1.40   -0.29
#  27    0.01   -0.80    0.08   -0.38   -0.15    0.00    0.00      -1.24   -2.47   -0.98
#  28    0.91   -0.79    0.07   -0.61   -0.12    0.00    0.00      -0.55   -2.24   -0.43
#  29  -16.44   -0.05    0.00    8.09    0.27    0.00    0.00      -8.13   17.79    0.59
#  30  -18.93   -0.08    0.01    6.93    0.19    0.00    0.00     -11.87   16.74    0.45
#  31   -2.67   -0.08    0.00    0.50   -0.01    0.00    0.00      -2.25    6.54   -0.17
#  32   -1.85    0.00    0.00    0.34    0.02    0.00    0.00      -1.50   13.37    0.59
#  33   -2.07    0.00    0.00    0.51    0.02    0.00    0.00      -1.53   13.38    0.59
#  34   -3.33   -0.15    0.02    1.01   -0.03    0.00    0.00      -2.49    6.22   -0.19
#  35   -0.87   -0.26    0.03    1.41   -0.06    0.00    0.00       0.25    5.91   -0.25
#  36   -0.96   -0.16    0.01    0.60   -0.05    0.00    0.00      -0.55    3.72   -0.28
#  37  -19.48   -0.05    0.01    4.23    0.13    0.00    0.00     -15.16   16.71    0.52
#  38  -20.69   -0.06    0.01    5.36    0.18    0.00    0.00     -15.20   17.67    0.59
#  39   -0.25   -0.02    0.00    0.11   -0.01    0.00    0.00      -0.18    3.70   -0.28
#  40   -3.48   -0.37    0.12    1.76   -0.06    0.00    0.00      -2.04    6.11   -0.22

@<TRIPOS>MOLECULE
          T526008       100
   40    41     0     0     0



@<TRIPOS>ATOM
      1 N1          9.1247    -4.0229    86.5664 N.pl3      1          -0.7532
      2 C1          8.5012    -4.9461    87.2954 C.cat      1           0.6036
      3 N2          7.3029    -4.6868    87.8148 N.pl3      1          -0.7578
      4 H1          6.8843    -3.8253    87.6621 H          1           0.4440
      5 H2          6.8487    -5.3595    88.3459 H          1           0.4368
      6 C2          9.1398    -6.2606    87.5284 C.ar       1          -0.1173
      7 C3          8.4863    -7.2310    88.2867 C.ar       1          -0.0675
      8 C4          9.0900    -8.4603    88.5012 C.ar       1           0.1856
      9 N3          8.4372    -9.4374    89.2615 N.am       1          -0.6733
     10 C5          8.1084    -9.1850    90.5440 C.2        1           0.7200
     11 O1          8.3791    -8.1086    91.0404 O.2        1          -0.5698
     12 N4          7.4798   -10.1258    91.2762 N.am       1          -0.6728
     13 C6          7.1385    -9.8637    92.6081 C.ar       1           0.1849
     14 C7          6.8465    -8.5684    93.0067 C.ar       1          -0.0699
     15 C8          6.5066    -8.3117    94.3342 C.ar       1          -0.1200
     16 C9          6.4621    -9.3600    95.2538 C.ar       1          -0.0688
     17 C10         6.7546   -10.6475    94.8476 C.ar       1          -0.0124
     18 Cl1         6.6988   -11.9503    95.9936 Cl         1          -0.0091
     19 C11         7.0867   -10.9025    93.5292 C.ar       1          -0.0767
     20 C12         6.1942    -6.9313    94.7667 C.cat      1           0.6043
     21 N5          6.2375    -5.9323    93.8875 N.pl3      1          -0.7502
     22 N6          5.8697    -6.6884    96.0349 N.pl3      1          -0.7556
     23 H3          5.8381    -7.4162    96.6754 H          1           0.4360
     24 H4          5.6649    -5.7837    96.3185 H          1           0.4465
     25 C13        10.3429    -8.7228    87.9612 C.ar       1          -0.0738
     26 C14        10.9918    -7.7603    87.2087 C.ar       1          -0.0125
     27 Cl2        12.5569    -8.0968    86.5371 Cl         1          -0.0079
     28 C15        10.3953    -6.5346    86.9850 C.ar       1          -0.0665
     29 H5          8.7071    -3.1606    86.4154 H          1           0.4381
     30 H6          9.9986    -4.2110    86.1898 H          1           0.4468
     31 H7          7.5124    -7.0253    88.7061 H          1           0.1558
     32 H8          8.2212   -10.2961    88.8655 H          1           0.4271
     33 H9          7.2640   -10.9846    90.8802 H          1           0.4268
     34 H10         6.8827    -7.7604    92.2910 H          1           0.1582
     35 H11         6.1995    -9.1648    96.2830 H          1           0.1556
     36 H12         7.3106   -11.9115    93.2158 H          1           0.1621
     37 H13         6.4739    -6.1094    92.9636 H          1           0.4490
     38 H14         6.0327    -5.0276    94.1710 H          1           0.4377
     39 H15        10.8118    -9.6810    88.1297 H          1           0.1630
     40 H16        10.9024    -5.7872    86.3930 H          1           0.1531
@<TRIPOS>BOND
     1    1    2 1
     2    1   29 1
     3    1   30 1
     4    2    3 2
     5    2    6 1
     6    3    4 1
     7    3    5 1
     8    6   28 ar
     9    6    7 ar
    10    7    8 ar
    11    7   31 1
    12    8    9 1
    13    8   25 ar
    14    9   10 am
    15    9   32 1
    16   10   11 2
    17   10   12 am
    18   12   13 1
    19   12   33 1
    20   13   19 ar
    21   13   14 ar
    22   14   15 ar
    23   14   34 1
    24   15   16 ar
    25   15   20 1
    26   16   17 ar
    27   16   35 1
    28   17   18 1
    29   17   19 ar
    30   19   36 1
    31   20   21 1
    32   20   22 2
    33   21   37 1
    34   21   38 1
    35   22   23 1
    36   22   24 1
    37   25   26 ar
    38   25   39 1
    39   26   27 1
    40   26   28 ar
    41   28   40 1
##########                 Name:              T534785
##########          Protonation:                   94
##########               SMILES:   c1cc(cc(c1)F)NC(=O)N2CCC[NH+](CC2)CCCCCNC(=O)/C=C\c3ccc(c(c3)Cl)Cl
##########            Long Name:   op-2-enoyl]amino]pentyl]-N-(3-fluorophenyl)-1,4-diazepan-4-ium-1-carboxamide
##########          FlexRecCode: 1
##########               Number:                  319
##########   Ligand Source File: /raidb/db2/rgc/tcams/tcams-0001273.db2.gz
##########           GlobalRank: 232
##########                 Rank:                    1
##########               Setnum:                  172
##########             Matchnum:                  190
##########                Cloud:                    1
##########        Electrostatic:           -37.191002
##########        Van der Waals:           -33.422085
##########  Ligand Polar Desolv:             9.236589
########## Ligand Apolar Desolv:            -4.520076
##########      Internal Energy:             0.000000
##########      Receptor Energy: 0.0
########## Receptor Desolvation:             0.000000
########## Receptor Hydrophobic:             0.000000
##########         Total Energy: -65.9
##########        Ligand Charge:             1.000000
##########            Arbitrary:    +999.9990
##########     heavy atom count:   35
##########           pose count:    1
##########        Ligand Energy:             0.000000
# num electro vdwattr vdwrepu polsolv apolsol rdesolv rhydroe totalscore fullpol fullapo
#   1    1.14   -1.04    0.10   -0.09   -0.28    0.00    0.00      -0.17   -0.16   -0.48
#   2   -0.88   -1.57    0.20   -0.01   -0.18    0.00    0.00      -2.44   -0.02   -0.34
#   3    1.53   -1.95    0.63   -0.65   -0.25    0.00    0.00      -0.69   -1.22   -0.47
#   4    0.85   -1.98    0.66   -0.34   -0.23    0.00    0.00      -1.04   -0.69   -0.47
#   5    1.81   -1.52    0.22   -0.74   -0.20    0.00    0.00      -0.43   -1.71   -0.46
#   6   -1.15   -1.39    0.17    0.73   -0.25    0.00    0.00      -1.88    2.03   -0.68
#   7    3.59   -1.40    0.33   -3.25    0.54    0.00    0.00      -0.20  -10.12    1.67
#   8   -5.99   -1.28    0.28    3.30   -0.66    0.00    0.00      -4.35   10.13   -2.03
#   9    4.45   -1.71    0.31   -2.36    0.13    0.00    0.00       0.82   -5.65    0.31
#  10   10.29   -0.78    0.04   -3.59    0.39    0.00    0.00       6.35  -13.24    1.44
#  11   -2.15   -0.60    0.03    0.64   -0.15    0.00    0.00      -2.23    1.98   -0.46
#  12    5.52   -1.07    0.16   -1.90   -0.10    0.00    0.00       2.60   -4.39   -0.24
#  13    0.37   -1.29    0.39   -0.12   -0.14    0.00    0.00      -0.79   -0.31   -0.36
#  14   14.12   -1.83    1.46   -3.29    0.05    0.00    0.00      10.51  -11.16    0.18
#  15  -24.16   -0.16    0.06    4.82    0.13    0.00    0.00     -19.31   16.79    0.44
#  16    0.63   -1.35    0.52   -0.04   -0.11    0.00    0.00      -0.35   -0.11   -0.35
#  17    3.80   -1.03    0.30   -1.17   -0.06    0.00    0.00       1.84   -4.01   -0.20
#  18    0.55   -1.08    0.33   -0.89   -0.07    0.00    0.00      -1.16   -2.94   -0.22
#  19    0.30   -0.47    0.05   -0.51   -0.05    0.00    0.00      -0.67   -2.39   -0.22
#  20   -0.19   -0.67    0.13    0.38   -0.11    0.00    0.00      -0.45    1.53   -0.43
#  21    0.89   -0.48    0.02   -1.99    0.47    0.00    0.00      -1.10   -9.84    2.33
#  22   -0.54   -0.66    0.03    1.42   -0.17    0.00    0.00       0.08    4.96   -0.58
#  23    0.41   -1.16    0.15   -1.07    0.11    0.00    0.00      -1.56   -2.78    0.29
#  24    0.22   -0.68    0.05   -0.58   -0.12    0.00    0.00      -1.11   -2.20   -0.45
#  25    0.02   -0.58    0.05   -0.13   -0.10    0.00    0.00      -0.75   -0.58   -0.44
#  26    0.11   -0.55    0.04   -0.05   -0.06    0.00    0.00      -0.52   -0.26   -0.31
#  27    0.05   -0.39    0.02   -0.02   -0.05    0.00    0.00      -0.39   -0.14   -0.31
#  28    0.20   -0.50    0.02   -0.09   -0.10    0.00    0.00      -0.46   -0.44   -0.46
#  29    0.06   -0.59    0.04   -0.03   -0.07    0.00    0.00      -0.59   -0.13   -0.30
#  30    0.61   -1.33    0.09   -0.02   -0.26    0.00    0.00      -0.91   -0.08   -0.95
#  31    0.38   -0.80    0.11   -0.03   -0.08    0.00    0.00      -0.42   -0.13   -0.30
#  32    0.83   -2.02    0.27   -0.03   -0.33    0.00    0.00      -1.28   -0.08   -0.95
#  33    0.38   -0.85    0.10   -0.12   -0.12    0.00    0.00      -0.60   -0.43   -0.45
#  34    1.01   -0.41    0.03   -0.07   -0.08    0.00    0.00       0.49   -0.33   -0.39
#  35   -2.31   -0.47    0.03    0.53   -0.10    0.00    0.00      -2.31    2.23   -0.42
#  36    0.78   -1.52    0.20   -0.45   -0.16    0.00    0.00      -1.15   -1.13   -0.41
#  37   -1.18   -0.46    0.14    0.38   -0.14    0.00    0.00      -1.25    0.78   -0.28
#  38   -2.71   -0.44    0.08    1.01   -0.12    0.00    0.00      -2.19    2.26   -0.28
#  39   -1.94   -0.25    0.01    0.91   -0.08    0.00    0.00      -1.34    3.28   -0.28
#  40   -1.54   -0.02    0.00    1.63    0.07    0.00    0.00       0.15    9.00    0.41
#  41   -1.79   -0.13    0.00    0.26   -0.02    0.00    0.00      -1.69    2.36   -0.20
#  42   -2.04   -0.26    0.03    0.54   -0.07    0.00    0.00      -1.80    2.15   -0.28
#  43   -4.34   -0.50    0.10    2.00   -0.12    0.00    0.00      -2.86    4.56   -0.28
#  44   -4.12   -0.50    0.31    1.82   -0.09    0.00    0.00      -2.59    4.84   -0.25
#  45   -3.41   -0.20    0.01    0.59   -0.05    0.00    0.00      -3.06    2.78   -0.24
#  46   -6.24   -0.91    0.80    2.73   -0.10    0.00    0.00      -3.72    6.23   -0.22
#  47   -2.18   -0.17    0.02    0.76   -0.04    0.00    0.00      -1.62    4.60   -0.26
#  48   -4.91   -1.15    1.31    1.67   -0.12    0.00    0.00      -3.20    3.92   -0.27
#  49   -3.71   -0.80    0.75    1.23   -0.07    0.00    0.00      -2.60    3.92   -0.23
#  50   -1.67   -0.10    0.00    0.37   -0.03    0.00    0.00      -1.43    3.77   -0.28
#  51   -0.63   -1.09    1.51    0.49   -0.11    0.00    0.00       0.17    1.21   -0.28
#  52   -0.28   -0.20    0.03    0.23   -0.05    0.00    0.00      -0.27    1.35   -0.28
#  53   -0.23   -0.05    0.00    0.11   -0.01    0.00    0.00      -0.19    2.23   -0.28
#  54   -0.18   -0.17    0.04    0.29   -0.04    0.00    0.00      -0.06    1.99   -0.28
#  55   -0.09   -0.62    0.50    0.06   -0.08    0.00    0.00      -0.24    0.19   -0.28
#  56   -0.12   -0.15    0.02    0.06   -0.04    0.00    0.00      -0.24    0.40   -0.28
#  57   -0.47    0.00    0.00    0.39    0.03    0.00    0.00      -0.06    7.83    0.56
#  58   -0.11   -0.24    0.05    0.82   -0.07    0.00    0.00       0.46    3.52   -0.28
#  59   -0.22   -0.13    0.02    0.38   -0.04    0.00    0.00       0.01    2.52   -0.28
#  60   -0.17   -0.05    0.00    0.05   -0.01    0.00    0.00      -0.17    1.17   -0.24
#  61   -0.17   -0.12    0.01    0.13   -0.04    0.00    0.00      -0.20    0.85   -0.28
#  62   -0.80   -0.25    0.06    0.26   -0.07    0.00    0.00      -0.80    1.00   -0.28
#  63   -1.92   -0.09    0.00    0.18   -0.02    0.00    0.00      -1.85    2.25   -0.28
#  64   -2.40   -0.07    0.00    0.39   -0.02    0.00    0.00      -2.09    5.81   -0.26
#  65   -3.13   -0.25    0.06    1.09   -0.06    0.00    0.00      -2.29    5.02   -0.28
#  66   -1.60   -0.12    0.01    0.10   -0.03    0.00    0.00      -1.64    0.90   -0.24
#  67   -0.41   -0.36    0.07    0.13   -0.06    0.00    0.00      -0.63    0.46   -0.19

@<TRIPOS>MOLECULE
          T534785        94
   67    69     0     0     0



@<TRIPOS>ATOM
      1 F1          8.4654   -13.1476    97.1822 F          1          -0.1319
      2 C1          8.1921   -11.8278    97.2750 C.ar       1           0.1223
      3 C2          8.7507   -11.0749    98.2950 C.ar       1          -0.1636
      4 C3          8.4728    -9.7244    98.3923 C.ar       1          -0.0648
      5 C4          7.6366    -9.1213    97.4728 C.ar       1          -0.1561
      6 C5          7.0746    -9.8722    96.4488 C.ar       1           0.1757
      7 N1          6.2273    -9.2628    95.5165 N.am       1          -0.6754
      8 C6          5.4784    -8.2026    95.8786 C.2        1           0.7011
      9 O1          5.0957    -8.0924    97.0274 O.2        1          -0.5486
     10 N2          5.1535    -7.2641    94.9673 N.am       1          -0.6365
     11 C7          4.3346    -6.0823    95.3405 C.3        1           0.0947
     12 C8          4.6563    -4.7332    94.7432 C.3        1          -0.1570
     13 C9          3.9432    -4.6125    93.3807 C.3        1          -0.0100
     14 N3          4.5306    -5.4379    92.3898 N.4        1          -0.3662
     15 H1          5.4965    -5.1673    92.2806 H          1           0.4170
     16 C10         3.8378    -5.1998    91.1165 C.3        1          -0.0209
     17 C11         4.7241    -5.6642    89.9591 C.3        1          -0.1460
     18 C12         4.0025    -5.4160    88.6329 C.3        1          -0.1154
     19 C13         2.6874    -6.1977    88.6137 C.3        1          -0.1321
     20 C14         1.9659    -5.9496    87.2877 C.3        1           0.1183
     21 N4          0.7066    -6.6981    87.2693 N.am       1          -0.7311
     22 C15        -0.4234    -6.1273    87.7317 C.2        1           0.5390
     23 O2         -0.3977    -4.9901    88.1645 O.2        1          -0.5213
     24 C16        -1.6816    -6.8752    87.7134 C.2        1          -0.2157
     25 C17        -2.0320    -7.6315    88.7735 C.2        1          -0.0110
     26 C18        -1.2657    -7.5419    90.0267 C.ar       1          -0.0594
     27 C19        -0.6276    -8.6748    90.5424 C.ar       1          -0.0283
     28 C20         0.0889    -8.5842    91.7163 C.ar       1          -0.1093
     29 C21         0.1784    -7.3746    92.3858 C.ar       1          -0.0181
     30 Cl1         1.0836    -7.2699    93.8634 Cl         1          -0.0473
     31 C22        -0.4513    -6.2473    91.8810 C.ar       1          -0.0398
     32 Cl2        -0.3322    -4.7364    92.7276 Cl         1          -0.0462
     33 C23        -1.1674    -6.3226    90.7041 C.ar       1          -0.0781
     34 C24         4.4815    -6.8738    92.6796 C.3        1          -0.0473
     35 C25         5.6072    -7.3733    93.5574 C.3        1           0.1146
     36 C26         7.3592   -11.2274    96.3483 C.ar       1          -0.1664
     37 H2          9.4041   -11.5441    99.0155 H          1           0.1416
     38 H3          8.9097    -9.1400    99.1886 H          1           0.1428
     39 H4          7.4198    -8.0662    97.5506 H          1           0.1335
     40 H5          6.1790    -9.6036    94.6096 H          1           0.4098
     41 H6          3.2989    -6.3112    95.0895 H          1           0.0924
     42 H7          4.3860    -5.9795    96.4245 H          1           0.0948
     43 H8          4.3074    -3.9448    95.4101 H          1           0.1281
     44 H9          5.7334    -4.6429    94.6018 H          1           0.0945
     45 H10         2.8982    -4.8969    93.5029 H          1           0.1286
     46 H11         3.9894    -3.5753    93.0486 H          1           0.1383
     47 H12         2.9009    -5.7566    91.1029 H          1           0.1345
     48 H13         3.6293    -4.1352    91.0099 H          1           0.1315
     49 H14         5.6608    -5.1072    89.9727 H          1           0.0870
     50 H15         4.9327    -6.7287    90.0656 H          1           0.0895
     51 H16         3.7939    -4.3516    88.5264 H          1           0.0797
     52 H17         4.6339    -5.7468    87.8083 H          1           0.0785
     53 H18         2.8959    -7.2623    88.7202 H          1           0.0739
     54 H19         2.0560    -5.8669    89.4383 H          1           0.0746
     55 H20         1.7573    -4.8851    87.1811 H          1           0.0697
     56 H21         2.5971    -6.2805    86.4631 H          1           0.0693
     57 H22         0.6861    -7.6045    86.9243 H          1           0.4014
     58 H23        -2.3294    -6.8213    86.8508 H          1           0.1387
     59 H24        -2.8748    -8.3030    88.7027 H          1           0.1464
     60 H25        -0.6965    -9.6187    90.0220 H          1           0.1260
     61 H26         0.5816    -9.4584    92.1155 H          1           0.1397
     62 H27        -1.6539    -5.4429    90.3091 H          1           0.1432
     63 H28         3.5337    -7.0946    93.1704 H          1           0.1316
     64 H29         4.5117    -7.4176    91.7353 H          1           0.1468
     65 H30         6.4973    -6.7625    93.4068 H          1           0.1027
     66 H31         5.8284    -8.4137    93.3195 H          1           0.1340
     67 H32         6.9273   -11.8129    95.5501 H          1           0.1582
@<TRIPOS>BOND
     1    1    2 1
     2    2   36 ar
     3    2    3 ar
     4    3    4 ar
     5    3   37 1
     6    4    5 ar
     7    4   38 1
     8    5    6 ar
     9    5   39 1
    10    6    7 1
    11    6   36 ar
    12    7    8 am
    13    7   40 1
    14    8    9 2
    15    8   10 am
    16   10   35 1
    17   10   11 1
    18   11   12 1
    19   11   41 1
    20   11   42 1
    21   12   13 1
    22   12   43 1
    23   12   44 1
    24   13   14 1
    25   13   45 1
    26   13   46 1
    27   14   15 1
    28   14   16 1
    29   14   34 1
    30   16   17 1
    31   16   47 1
    32   16   48 1
    33   17   18 1
    34   17   49 1
    35   17   50 1
    36   18   19 1
    37   18   51 1
    38   18   52 1
    39   19   20 1
    40   19   53 1
    41   19   54 1
    42   20   21 1
    43   20   55 1
    44   20   56 1
    45   21   22 am
    46   21   57 1
    47   22   23 2
    48   22   24 1
    49   24   25 2
    50   24   58 1
    51   25   26 1
    52   25   59 1
    53   26   33 ar
    54   26   27 ar
    55   27   28 ar
    56   27   60 1
    57   28   29 ar
    58   28   61 1
    59   29   30 1
    60   29   31 ar
    61   31   32 1
    62   31   33 ar
    63   33   62 1
    64   34   35 1
    65   34   63 1
    66   34   64 1
    67   35   65 1
    68   35   66 1
    69   36   67 1
##########                 Name:              T533156
##########          Protonation:                   95
##########               SMILES:   c1cc(c(cc1/C=C\C(=O)NCCCCCC[NH+]2CCCN(CC2)C(=O)Nc3ccc(c(c3)C(F)(F)F)Cl)Cl)Cl
##########            Long Name:   ,4-dichlorophenyl)prop-2-enoyl]amino]hexyl]-1,4-diazepan-4-ium-1-carboxamide
##########          FlexRecCode: 1
##########               Number:                  229
##########   Ligand Source File: /raidb/db2/rgc/tcams/tcams-0001050.db2.gz
##########           GlobalRank: 233
##########                 Rank:                    1
##########               Setnum:                  285
##########             Matchnum:                 1568
##########                Cloud:                    1
##########        Electrostatic:           -35.434998
##########        Van der Waals:           -31.470144
##########  Ligand Polar Desolv:             4.706669
########## Ligand Apolar Desolv:            -3.690991
##########      Internal Energy:             0.000000
##########      Receptor Energy: 0.0
########## Receptor Desolvation:             0.000000
########## Receptor Hydrophobic:             0.000000
##########         Total Energy: -65.89
##########        Ligand Charge:             1.000000
##########            Arbitrary:    +999.9990
##########     heavy atom count:   40
##########           pose count:    1
##########        Ligand Energy:             0.000000
# num electro vdwattr vdwrepu polsolv apolsol rdesolv rhydroe totalscore fullpol fullapo
#   1    1.50   -0.99    0.09   -0.56   -0.25    0.00    0.00      -0.21   -0.98   -0.44
#   2   -3.01   -1.14    0.18    1.05   -0.03    0.00    0.00      -2.94    2.20   -0.06
#   3    1.37   -0.63    0.05   -0.19   -0.18    0.00    0.00       0.41   -0.47   -0.45
#   4   -0.28   -3.19    3.69   -0.28   -0.23    0.00    0.00      -0.31   -0.55   -0.45
#   5    1.04   -1.52    0.25   -0.52   -0.15    0.00    0.00      -0.90   -1.26   -0.37
#   6    0.56   -1.43    0.19   -0.35   -0.16    0.00    0.00      -1.20   -0.96   -0.44
#   7   -1.85   -1.33    0.12    1.00   -0.27    0.00    0.00      -2.33    2.47   -0.67
#   8   10.36   -1.13    0.07   -4.58    0.66    0.00    0.00       5.38  -11.66    1.67
#   9   -7.98   -1.14    0.15    4.14   -0.68    0.00    0.00      -5.52   12.27   -2.03
#  10    2.53   -2.21    0.84   -3.33    0.13    0.00    0.00      -2.04   -8.19    0.32
#  11    9.43   -0.77    0.06   -3.54    0.36    0.00    0.00       5.54  -14.23    1.44
#  12   -0.80   -0.59    0.14    0.43   -0.10    0.00    0.00      -0.91    2.06   -0.46
#  13    2.62   -0.34    0.01   -0.89   -0.05    0.00    0.00       1.36   -4.42   -0.24
#  14    0.15   -0.30    0.01   -0.04   -0.07    0.00    0.00      -0.24   -0.23   -0.36
#  15    9.64   -0.73    0.16   -2.48    0.04    0.00    0.00       6.62  -11.56    0.18
#  16  -17.26   -0.04    0.00    3.83    0.10    0.00    0.00     -13.37   16.46    0.44
#  17    0.41   -0.41    0.04    0.02   -0.07    0.00    0.00      -0.01    0.10   -0.35
#  18    4.61   -1.10    0.44   -1.15   -0.05    0.00    0.00       2.74   -4.24   -0.20
#  19    2.28   -0.46    0.03   -0.61   -0.05    0.00    0.00       1.20   -2.79   -0.22
#  20    3.04   -0.71    0.09   -0.74   -0.07    0.00    0.00       1.61   -2.33   -0.22
#  21    2.84   -0.68    0.08   -0.63   -0.07    0.00    0.00       1.53   -1.91   -0.22
#  22   -3.87   -1.70    0.97    0.54   -0.18    0.00    0.00      -4.23    1.29   -0.42
#  23   17.99   -1.93    0.88   -2.91    0.87    0.00    0.00      14.91   -7.81    2.33
#  24   -3.31   -1.13    0.27    1.06   -0.16    0.00    0.00      -3.28    3.84   -0.58
#  25    1.42   -1.13    0.31   -0.46    0.08    0.00    0.00       0.21   -1.69    0.29
#  26    0.54   -0.63    0.05   -0.47   -0.10    0.00    0.00      -0.62   -2.07   -0.45
#  27    0.03   -0.39    0.01   -0.07   -0.07    0.00    0.00      -0.48   -0.42   -0.44
#  28    0.17   -0.25    0.00   -0.03   -0.03    0.00    0.00      -0.14   -0.30   -0.31
#  29    0.16   -0.47    0.05   -0.02   -0.04    0.00    0.00      -0.32   -0.12   -0.29
#  30    0.28   -0.31    0.02   -0.01   -0.03    0.00    0.00      -0.06   -0.13   -0.30
#  31    0.55   -1.19    0.36   -0.02   -0.15    0.00    0.00      -0.44   -0.12   -0.95
#  32    0.08   -0.13    0.00   -0.01   -0.02    0.00    0.00      -0.07   -0.15   -0.29
#  33    0.14   -0.16    0.00    0.00   -0.04    0.00    0.00      -0.06   -0.10   -0.95
#  34    0.16   -0.12    0.00   -0.03   -0.02    0.00    0.00      -0.01   -0.47   -0.46
#  35    0.13   -0.16    0.00   -0.03   -0.03    0.00    0.00      -0.09   -0.54   -0.45
#  36    1.06   -0.48    0.06   -0.08   -0.09    0.00    0.00       0.47   -0.38   -0.39
#  37   -3.11   -0.69    0.13    0.63   -0.11    0.00    0.00      -3.15    2.35   -0.42
#  38    1.24   -1.77    0.22   -0.46   -0.21    0.00    0.00      -0.97   -0.86   -0.40
#  39    1.39   -2.00    0.42   -0.45   -0.25    0.00    0.00      -0.88   -0.83   -0.46
#  40    0.04   -1.76    0.49   -0.18   -0.15    0.00    0.00      -1.56   -0.36   -0.30
#  41    0.21   -4.84    2.30   -0.25   -0.54    0.00    0.00      -3.12   -0.42   -0.91
#  42   -0.37   -0.33    0.08    0.65   -0.06    0.00    0.00      -0.02    2.64   -0.25
#  43   -8.18   -0.02    0.00    2.49    0.11    0.00    0.00      -5.60    9.45    0.41
#  44    0.07   -0.32    0.18    0.41   -0.03    0.00    0.00       0.31    2.45   -0.20
#  45   -0.58   -0.23    0.07    0.33   -0.05    0.00    0.00      -0.46    1.97   -0.28
#  46   -1.76   -0.08    0.00    0.29   -0.02    0.00    0.00      -1.58    4.08   -0.28
#  47   -2.39   -0.14    0.01    0.64   -0.04    0.00    0.00      -1.92    4.43   -0.25
#  48   -1.02   -0.06    0.00    0.20   -0.01    0.00    0.00      -0.89    3.36   -0.24
#  49   -1.87   -0.10    0.00    0.65   -0.03    0.00    0.00      -1.35    5.80   -0.23
#  50   -1.73   -0.05    0.00    0.23   -0.01    0.00    0.00      -1.56    5.17   -0.26
#  51   -1.85   -0.10    0.00    0.54   -0.03    0.00    0.00      -1.45    4.47   -0.27
#  52   -4.14   -1.30    2.54    1.10   -0.08    0.00    0.00      -1.88    3.20   -0.23
#  53   -2.83   -0.31    0.09    0.71   -0.06    0.00    0.00      -2.40    3.10   -0.28
#  54   -0.99   -0.05    0.00    0.09   -0.01    0.00    0.00      -0.97    1.71   -0.28
#  55   -0.90   -0.14    0.01    0.24   -0.04    0.00    0.00      -0.83    1.76   -0.28
#  56   -2.57   -0.47    0.15    0.39   -0.10    0.00    0.00      -2.60    1.12   -0.28
#  57   -1.73   -0.19    0.02    0.17   -0.05    0.00    0.00      -1.77    1.00   -0.28
#  58   -0.97   -0.15    0.02    0.18   -0.04    0.00    0.00      -0.96    1.36   -0.28
#  59   -1.27   -0.29    0.07    0.32   -0.06    0.00    0.00      -1.23    1.42   -0.28
#  60   -2.45   -0.97    1.33    0.10   -0.12    0.00    0.00      -2.10    0.24   -0.28
#  61   -2.78   -0.75    0.54    0.09   -0.12    0.00    0.00      -3.02    0.20   -0.28
#  62  -10.61   -0.03    0.00    2.09    0.18    0.00    0.00      -8.36    6.35    0.56
#  63   -0.49   -0.15    0.01    0.51   -0.05    0.00    0.00      -0.16    3.10   -0.28
#  64   -0.07   -0.10    0.01    0.26   -0.03    0.00    0.00       0.08    2.69   -0.28
#  65   -1.13   -0.24    0.07    0.08   -0.04    0.00    0.00      -1.26    0.47   -0.25
#  66   -0.20   -0.02    0.00    0.02   -0.01    0.00    0.00      -0.20    0.95   -0.28
#  67   -0.21   -0.03    0.00    0.06   -0.01    0.00    0.00      -0.19    1.84   -0.28
#  68   -1.57   -0.09    0.00    0.26   -0.02    0.00    0.00      -1.42    3.06   -0.28
#  69   -3.61   -0.17    0.02    1.07   -0.04    0.00    0.00      -2.73    6.22   -0.26
#  70   -4.24   -0.45    0.43    1.02   -0.06    0.00    0.00      -3.30    4.72   -0.28
#  71   -3.45   -0.27    0.06    0.30   -0.05    0.00    0.00      -3.42    1.33   -0.24
#  72   -2.96   -0.43    0.06    1.07   -0.11    0.00    0.00      -2.36    2.13   -0.21
#  73   -3.06   -0.52    0.12    0.81   -0.14    0.00    0.00      -2.78    1.64   -0.28

@<TRIPOS>MOLECULE
          T533156        95
   73    75     0     0     0



@<TRIPOS>ATOM
      1 F1          8.4252   -13.0685    97.1174 F          1          -0.1742
      2 C1          7.5778   -12.1868    96.4380 C.3        1           0.5100
      3 F2          7.9239   -12.1584    95.0828 F          1          -0.1649
      4 F3          6.2532   -12.6165    96.5720 F          1          -0.1654
      5 C2          7.7188   -10.8045    97.0215 C.ar       1          -0.1539
      6 C3          6.9708    -9.7609    96.5122 C.ar       1          -0.0859
      7 C4          7.1009    -8.4878    97.0506 C.ar       1           0.1528
      8 N1          6.3436    -7.4284    96.5366 N.am       1          -0.6770
      9 C5          5.1283    -7.6651    96.0037 C.2        1           0.7041
     10 O1          4.2522    -8.1618    96.6850 O.2        1          -0.5501
     11 N2          4.8844    -7.3511    94.7160 N.am       1          -0.6348
     12 C6          3.5527    -7.5950    94.1050 C.3        1           0.0940
     13 C7          2.9820    -6.5892    93.1337 C.3        1          -0.1576
     14 C8          3.5226    -6.9015    91.7233 C.3        1          -0.0099
     15 N3          4.8965    -6.5820    91.5894 N.4        1          -0.3671
     16 H1          5.0149    -5.5976    91.7765 H          1           0.4177
     17 C9          5.3003    -6.8397    90.2007 C.3        1          -0.0199
     18 C10         6.5823    -6.0644    89.8901 C.3        1          -0.1483
     19 C11         7.0028    -6.3329    88.4438 C.3        1          -0.1167
     20 C12         8.2848    -5.5576    88.1331 C.3        1          -0.1177
     21 C13         8.7054    -5.8260    86.6868 C.3        1          -0.1332
     22 C14         9.9874    -5.0508    86.3762 C.3        1           0.1188
     23 N4         11.0527    -5.4852    87.2832 N.am       1          -0.7298
     24 C15        11.8565    -6.5101    86.9365 C.2        1           0.5375
     25 O2         11.6973    -7.0745    85.8701 O.2        1          -0.5223
     26 C16        12.9209    -6.9440    87.8427 C.2        1          -0.2139
     27 C17        12.6735    -7.8942    88.7673 C.2        1          -0.0142
     28 C18        11.4119    -8.6507    88.7255 C.ar       1          -0.0592
     29 C19        10.5304    -8.6071    89.8107 C.ar       1          -0.0237
     30 C20         9.3496    -9.3185    89.7643 C.ar       1          -0.0386
     31 Cl1         8.2532    -9.2660    91.1093 Cl         1          -0.0535
     32 C21         9.0362   -10.0750    88.6451 C.ar       1          -0.0205
     33 Cl2         7.5480   -10.9673    88.5944 Cl         1          -0.0484
     34 C22         9.9048   -10.1217    87.5672 C.ar       1          -0.1075
     35 C23        11.0862    -9.4117    87.5984 C.ar       1          -0.0816
     36 C24         5.7903    -7.3327    92.4761 C.3        1          -0.0465
     37 C25         5.9361    -6.7435    93.8615 C.3        1           0.1141
     38 C26         7.9830    -8.2670    98.1003 C.ar       1          -0.0782
     39 C27         8.7285    -9.3138    98.6056 C.ar       1          -0.0884
     40 C28         8.5932   -10.5830    98.0707 C.ar       1          -0.0035
     41 Cl3         9.5269   -11.8982    98.7128 Cl         1          -0.0299
     42 H2          6.2856    -9.9351    95.6957 H          1           0.1518
     43 H3          6.6933    -6.5241    96.5639 H          1           0.4112
     44 H4          3.6015    -8.5542    93.5896 H          1           0.0926
     45 H5          2.8360    -7.7050    94.9189 H          1           0.0960
     46 H6          1.8942    -6.6580    93.1325 H          1           0.1289
     47 H7          3.2847    -5.5840    93.4276 H          1           0.0952
     48 H8          3.3858    -7.9637    91.5201 H          1           0.1283
     49 H9          2.9538    -6.3272    90.9920 H          1           0.1388
     50 H10         5.4793    -7.9066    90.0664 H          1           0.1336
     51 H11         4.5077    -6.5165    89.5260 H          1           0.1305
     52 H12         6.4033    -4.9977    90.0245 H          1           0.0868
     53 H13         7.3749    -6.3877    90.5649 H          1           0.0893
     54 H14         7.1820    -7.3997    88.3095 H          1           0.0760
     55 H15         6.2102    -6.0098    87.7690 H          1           0.0747
     56 H16         8.1059    -4.4908    88.2675 H          1           0.0703
     57 H17         9.0774    -5.8807    88.8080 H          1           0.0713
     58 H18         8.8843    -6.8928    86.5525 H          1           0.0724
     59 H19         7.9127    -5.5028    86.0120 H          1           0.0718
     60 H20        10.2870    -5.2420    85.3458 H          1           0.0678
     61 H21         9.8083    -3.9840    86.5104 H          1           0.0685
     62 H22        11.1795    -5.0353    88.1331 H          1           0.4014
     63 H23        13.9043    -6.5036    87.7710 H          1           0.1387
     64 H24        13.4013    -8.0999    89.5383 H          1           0.1469
     65 H25        10.7739    -8.0186    90.6829 H          1           0.1304
     66 H26         9.6543   -10.7126    86.6988 H          1           0.1440
     67 H27        11.7605    -9.4460    86.7554 H          1           0.1398
     68 H28         5.4094    -8.3497    92.5694 H          1           0.1313
     69 H29         6.7763    -7.3785    92.0139 H          1           0.1467
     70 H30         5.8030    -5.6624    93.8232 H          1           0.1035
     71 H31         6.9214    -6.9807    94.2626 H          1           0.1345
     72 H32         8.0862    -7.2776    98.5205 H          1           0.1604
     73 H33         9.4150    -9.1426    99.4217 H          1           0.1539
@<TRIPOS>BOND
     1    1    2 1
     2    2    3 1
     3    2    4 1
     4    2    5 1
     5    5   40 ar
     6    5    6 ar
     7    6    7 ar
     8    6   42 1
     9    7    8 1
    10    7   38 ar
    11    8    9 am
    12    8   43 1
    13    9   10 2
    14    9   11 am
    15   11   37 1
    16   11   12 1
    17   12   13 1
    18   12   44 1
    19   12   45 1
    20   13   14 1
    21   13   46 1
    22   13   47 1
    23   14   15 1
    24   14   48 1
    25   14   49 1
    26   15   16 1
    27   15   17 1
    28   15   36 1
    29   17   18 1
    30   17   50 1
    31   17   51 1
    32   18   19 1
    33   18   52 1
    34   18   53 1
    35   19   20 1
    36   19   54 1
    37   19   55 1
    38   20   21 1
    39   20   56 1
    40   20   57 1
    41   21   22 1
    42   21   58 1
    43   21   59 1
    44   22   23 1
    45   22   60 1
    46   22   61 1
    47   23   24 am
    48   23   62 1
    49   24   25 2
    50   24   26 1
    51   26   27 2
    52   26   63 1
    53   27   28 1
    54   27   64 1
    55   28   35 ar
    56   28   29 ar
    57   29   30 ar
    58   29   65 1
    59   30   31 1
    60   30   32 ar
    61   32   33 1
    62   32   34 ar
    63   34   35 ar
    64   34   66 1
    65   35   67 1
    66   36   37 1
    67   36   68 1
    68   36   69 1
    69   37   70 1
    70   37   71 1
    71   38   39 ar
    72   38   72 1
    73   39   40 ar
    74   39   73 1
    75   40   41 1
##########                 Name:              T542529
##########          Protonation:                   13
##########               SMILES:   C[C@H](COc1ccc(cc1)c2ccccc2)CON3C(=[NH2+])NC(=[NH2+])NC3(C)C
##########            Long Name:   (2R)-2-methyl-3-(4-phenylphenoxy)propoxy]-1,3,5-triazinan-2-ylidene]ammonium
##########          FlexRecCode: 1
##########               Number:                    5
##########   Ligand Source File: /raidb/db2/rgc/tcams/tcams-0002303.db2.gz
##########           GlobalRank: 234
##########                 Rank:                    1
##########               Setnum:                  195
##########             Matchnum:                 4104
##########                Cloud:                    1
##########        Electrostatic:           -72.813713
##########        Van der Waals:           -22.196651
##########  Ligand Polar Desolv:            32.151600
########## Ligand Apolar Desolv:            -3.015647
##########      Internal Energy:             0.000000
##########      Receptor Energy: 0.0
########## Receptor Desolvation:             0.000000
########## Receptor Hydrophobic:             0.000000
##########         Total Energy: -65.87
##########        Ligand Charge:             2.000000
##########            Arbitrary:    +999.9990
##########     heavy atom count:   28
##########           pose count:    1
##########        Ligand Energy:             0.000000
# num electro vdwattr vdwrepu polsolv apolsol rdesolv rhydroe totalscore fullpol fullapo
#   1    0.28   -0.15    0.00   -0.38   -0.02    0.00    0.00      -0.26   -4.20   -0.18
#   2    0.37   -0.13    0.00   -0.17   -0.02    0.00    0.00       0.06   -2.18   -0.19
#   3   -0.05   -0.22    0.01    0.12   -0.02    0.00    0.00      -0.16    0.81   -0.11
#   4    0.56   -0.19    0.00   -0.39    0.04    0.00    0.00       0.03   -3.90    0.42
#   5    7.17   -0.47    0.02   -3.68    0.15    0.00    0.00       3.19  -21.34    0.87
#   6  -23.18   -1.74    0.64   10.46   -1.26    0.00    0.00     -15.09   36.09   -4.36
#   7   26.36   -3.41    4.16   -9.56    0.27    0.00    0.00      17.82  -31.02    0.89
#   8  -13.38   -0.02    0.00    3.87    0.08    0.00    0.00      -9.44   21.67    0.45
#   9  -28.19   -0.36    0.28    9.51    0.23    0.00    0.00     -18.52   24.30    0.60
#  10   28.25   -4.94    6.11  -12.35    0.45    0.00    0.00      17.52  -31.40    1.15
#  11  -24.02   -2.21    0.94   15.11   -1.81    0.00    0.00     -11.99   37.64   -4.52
#  12   25.79   -3.14    1.25  -15.48    0.44    0.00    0.00       8.85  -31.59    0.89
#  13  -20.65   -0.09    0.01   13.44    0.33    0.00    0.00      -6.97   24.56    0.60
#  14  -17.51   -0.04    0.00   10.32    0.26    0.00    0.00      -6.97   23.69    0.60
#  15   10.10   -1.04    0.11  -10.12    0.48    0.00    0.00      -0.47  -32.42    1.53
#  16   -4.41   -0.32    0.02    3.17   -0.07    0.00    0.00      -1.61   18.06   -0.38
#  17    2.17   -0.24    0.01   -1.14   -0.02    0.00    0.00       0.78   -8.21   -0.18
#  18    0.63   -0.38    0.08   -0.97   -0.02    0.00    0.00      -0.66   -6.82   -0.16
#  19   -0.54   -0.20    0.00    0.08   -0.01    0.00    0.00      -0.66    0.69   -0.09
#  20    3.32   -0.28    0.01   -0.86    0.12    0.00    0.00       2.30   -6.35    0.85
#  21   -1.45   -0.56    0.04    0.44   -0.06    0.00    0.00      -1.59    2.28   -0.31
#  22    2.82   -0.71    0.07   -0.81   -0.10    0.00    0.00       1.27   -3.43   -0.42
#  23    1.01   -1.11    0.22   -0.32   -0.12    0.00    0.00      -0.33   -1.19   -0.44
#  24    0.79   -0.94    0.09   -0.46   -0.12    0.00    0.00      -0.65   -1.54   -0.41
#  25    0.71   -1.03    0.25   -0.28   -0.11    0.00    0.00      -0.45   -1.08   -0.44
#  26    1.43   -0.77    0.13   -0.49   -0.09    0.00    0.00       0.20   -2.43   -0.46
#  27    0.68   -1.22    0.09   -0.20   -0.16    0.00    0.00      -0.81   -0.51   -0.41
#  28    1.42   -2.13    0.51   -0.64   -0.21    0.00    0.00      -1.05   -1.35   -0.44
#  29    1.68   -3.91    1.94   -0.74   -0.27    0.00    0.00      -1.29   -1.28   -0.47
#  30    2.02   -3.39    1.02   -0.80   -0.28    0.00    0.00      -1.43   -1.32   -0.47
#  31    1.95   -1.97    0.26   -0.62   -0.26    0.00    0.00      -0.64   -1.12   -0.47
#  32    1.59   -1.51    0.21   -0.54   -0.19    0.00    0.00      -0.45   -1.24   -0.44
#  33   -0.08   -0.03    0.00    0.11   -0.01    0.00    0.00      -0.02    2.79   -0.28
#  34   -0.11   -0.08    0.00    0.21   -0.02    0.00    0.00       0.00    2.38   -0.27
#  35   -0.12   -0.04    0.00   -0.02   -0.01    0.00    0.00      -0.19   -0.60   -0.27
#  36   -0.22   -0.02    0.00    0.05   -0.01    0.00    0.00      -0.20    1.60   -0.28
#  37   -0.18   -0.07    0.00    0.39   -0.01    0.00    0.00       0.13    5.93   -0.22
#  38   -1.12   -0.13    0.01    0.73   -0.04    0.00    0.00      -0.55    4.79   -0.26
#  39  -31.32   -0.27    0.09   13.03    0.29    0.00    0.00     -18.18   26.15    0.59
#  40   -4.20   -0.03    0.00    4.84    0.13    0.00    0.00       0.75   21.39    0.58
#  41   -0.92   -0.10    0.01    0.35   -0.03    0.00    0.00      -0.69    3.60   -0.27
#  42   -2.07   -0.09    0.00    0.33   -0.02    0.00    0.00      -1.85    4.19   -0.28
#  43   -0.56   -0.04    0.00    0.20   -0.01    0.00    0.00      -0.40    5.16   -0.26
#  44   -0.33   -0.48    0.75    0.35   -0.05    0.00    0.00       0.25    2.18   -0.28
#  45   -0.33   -0.04    0.00    0.19   -0.01    0.00    0.00      -0.19    3.89   -0.28
#  46   -0.33   -0.08    0.01    0.22   -0.02    0.00    0.00      -0.21    2.62   -0.26
#  47   -0.93   -0.07    0.00    0.21   -0.02    0.00    0.00      -0.81    2.91   -0.26
#  48   -0.23   -0.07    0.00    0.24   -0.02    0.00    0.00      -0.07    3.07   -0.26
#  49   -1.66   -0.12    0.01    0.55   -0.02    0.00    0.00      -1.24    5.05   -0.22
#  50   -1.81   -0.53    0.43    0.60   -0.05    0.00    0.00      -1.36    2.74   -0.22
#  51   -1.55   -0.20    0.02    0.22   -0.04    0.00    0.00      -1.54    1.22   -0.22
#  52   -1.38   -0.11    0.01    0.15   -0.03    0.00    0.00      -1.35    1.56   -0.28
#  53   -1.56   -0.37    0.06    0.90   -0.08    0.00    0.00      -1.05    2.39   -0.22
#  54   -2.13   -1.42    1.63    1.12   -0.18    0.00    0.00      -0.98    1.77   -0.28
#  55   -3.17   -1.28    1.39    0.77   -0.18    0.00    0.00      -2.47    1.21   -0.28
#  56   -2.46   -0.41    0.06    0.57   -0.14    0.00    0.00      -2.39    1.16   -0.28
#  57   -1.79   -0.48    0.23    0.32   -0.06    0.00    0.00      -1.77    1.26   -0.22

@<TRIPOS>MOLECULE
          T542529        13
   57    59     0     0     0



@<TRIPOS>ATOM
      1 C1          1.6653    -7.6630    89.2852 C.3        1          -0.1574
      2 C2          3.1161    -8.0345    89.5986 C.3        1          -0.0835
      3 C3          4.0579    -7.1082    88.8265 C.3        1           0.0076
      4 O1          5.3495    -7.7123    88.7335 O.3        1          -0.0619
      5 N1          6.3938    -6.7984    88.4523 N.pl3      1          -0.4876
      6 C4          6.6779    -5.7393    89.3032 C.cat      1           0.7651
      7 N2          6.7246    -5.8891    90.5962 N.pl3      1          -0.6722
      8 H1          6.5580    -6.7599    90.9898 H          1           0.4600
      9 H2          6.9256    -5.1300    91.1654 H          1           0.4603
     10 N3          6.9110    -4.5066    88.6961 N.pl3      1          -0.6703
     11 C5          7.6406    -4.5379    87.5091 C.cat      1           0.7709
     12 N4          8.5330    -3.6324    87.2259 N.pl3      1          -0.6663
     13 H3          8.7054    -2.9096    87.8496 H          1           0.4605
     14 H4          9.0252    -3.6807    86.3916 H          1           0.4688
     15 N5          7.3632    -5.5887    86.6458 N.pl3      1          -0.7069
     16 C6          7.2307    -6.9339    87.2457 C.3        1           0.4033
     17 C7          8.6098    -7.4745    87.6287 C.3        1          -0.1920
     18 C8          6.5579    -7.8825    86.2514 C.3        1          -0.1744
     19 C9          3.3686    -7.8823    91.0999 C.3        1           0.0668
     20 O2          4.7237    -8.2293    91.3926 O.3        1          -0.3073
     21 C10         5.1146    -8.1474    92.6913 C.ar       1           0.1174
     22 C11         6.4194    -8.4649    93.0434 C.ar       1          -0.2036
     23 C12         6.8190    -8.3827    94.3608 C.ar       1          -0.0734
     24 C13         5.9115    -7.9800    95.3390 C.ar       1          -0.0639
     25 C14         4.6023    -7.6614    94.9824 C.ar       1          -0.0692
     26 C15         4.2098    -7.7409    93.6627 C.ar       1          -0.1384
     27 C16         6.3381    -7.8909    96.7572 C.ar       1          -0.0533
     28 C17         5.4302    -7.4938    97.7368 C.ar       1          -0.1129
     29 C18         5.8325    -7.4131    99.0546 C.ar       1          -0.1160
     30 C19         7.1345    -7.7250    99.4034 C.ar       1          -0.1129
     31 C20         8.0395    -8.1193    98.4351 C.ar       1          -0.1138
     32 C21         7.6466    -8.2095    97.1151 C.ar       1          -0.1106
     33 H5          0.9943    -8.3229    89.8353 H          1           0.0588
     34 H6          1.4826    -6.6301    89.5815 H          1           0.0627
     35 H7          1.4853    -7.7714    88.2157 H          1           0.0865
     36 H8          3.2987    -9.0674    89.3023 H          1           0.1108
     37 H9          3.6622    -6.9407    87.8249 H          1           0.0710
     38 H10         4.1392    -6.1551    89.3492 H          1           0.0972
     39 H11         6.5846    -3.6764    89.0770 H          1           0.4811
     40 H12         7.2633    -5.4468    85.6915 H          1           0.4666
     41 H13         9.2233    -7.5723    86.7330 H          1           0.1128
     42 H14         9.0896    -6.7859    88.3242 H          1           0.1252
     43 H15         8.4990    -8.4502    88.1017 H          1           0.0697
     44 H16         7.1810    -7.9785    85.3623 H          1           0.1017
     45 H17         6.4303    -8.8617    86.7131 H          1           0.1159
     46 H18         5.5833    -7.4834    85.9710 H          1           0.1107
     47 H19         3.1860    -6.8494    91.3962 H          1           0.0693
     48 H20         2.6978    -8.5421    91.6499 H          1           0.0686
     49 H21         7.1222    -8.7769    92.2850 H          1           0.1239
     50 H22         7.8340    -8.6305    94.6342 H          1           0.1310
     51 H23         3.8969    -7.3493    95.7382 H          1           0.1384
     52 H24         3.1966    -7.4905    93.3852 H          1           0.1360
     53 H25         4.4138    -7.2493    97.4655 H          1           0.1222
     54 H26         5.1295    -7.1054    99.8149 H          1           0.1264
     55 H27         7.4449    -7.6601   100.4359 H          1           0.1269
     56 H28         9.0548    -8.3610    98.7130 H          1           0.1281
     57 H29         8.3531    -8.5221    96.3605 H          1           0.1257
@<TRIPOS>BOND
     1    1    2 1
     2    1   33 1
     3    1   34 1
     4    1   35 1
     5    2    3 1
     6    2   19 1
     7    2   36 1
     8    3    4 1
     9    3   37 1
    10    3   38 1
    11    4    5 1
    12    5   16 1
    13    5    6 1
    14    6    7 2
    15    6   10 1
    16    7    8 1
    17    7    9 1
    18   10   11 1
    19   10   39 1
    20   11   12 2
    21   11   15 1
    22   12   13 1
    23   12   14 1
    24   15   16 1
    25   15   40 1
    26   16   17 1
    27   16   18 1
    28   17   41 1
    29   17   42 1
    30   17   43 1
    31   18   44 1
    32   18   45 1
    33   18   46 1
    34   19   20 1
    35   19   47 1
    36   19   48 1
    37   20   21 1
    38   21   26 ar
    39   21   22 ar
    40   22   23 ar
    41   22   49 1
    42   23   24 ar
    43   23   50 1
    44   24   25 ar
    45   24   27 1
    46   25   26 ar
    47   25   51 1
    48   26   52 1
    49   27   32 ar
    50   27   28 ar
    51   28   29 ar
    52   28   53 1
    53   29   30 ar
    54   29   54 1
    55   30   31 ar
    56   30   55 1
    57   31   32 ar
    58   31   56 1
    59   32   57 1
##########                 Name:              T542140
##########          Protonation:                   25
##########               SMILES:   cc(n1)C(=[NH2+])NC[C@H](C)Oc2cccc(c2)C3CCCCC3)/NC[C@H](C)Oc4cccc(c4)C5CCCCC5
##########            Long Name:   S)-2-(3-cyclohexylphenoxy)propyl]carbamimidoyl]-2-pyridyl]methylene]ammonium
##########          FlexRecCode: 1
##########               Number:                  255
##########   Ligand Source File: /raidb/db2/rgc/tcams/tcams-0002191.db2.gz
##########           GlobalRank: 235
##########                 Rank:                    1
##########               Setnum:                  196
##########             Matchnum:                  352
##########                Cloud:                    1
##########        Electrostatic:           -42.558319
##########        Van der Waals:           -23.928711
##########  Ligand Polar Desolv:             3.962276
########## Ligand Apolar Desolv:            -3.340055
##########      Internal Energy:             0.000000
##########      Receptor Energy: 0.0
########## Receptor Desolvation:             0.000000
########## Receptor Hydrophobic:             0.000000
##########         Total Energy: -65.86
##########        Ligand Charge:             1.000000
##########            Arbitrary:    +999.9990
##########     heavy atom count:   44
##########           pose count:    1
##########        Ligand Energy:             0.000000
# num electro vdwattr vdwrepu polsolv apolsol rdesolv rhydroe totalscore fullpol fullapo
#   1    3.00   -1.45    0.33   -0.97   -0.10    0.00    0.00       0.81   -1.76   -0.18
#   2   -0.96   -1.03    0.13    0.44   -0.05    0.00    0.00      -1.47    0.91   -0.10
#   3   -1.14   -0.88    0.09    0.57   -0.15    0.00    0.00      -1.50    1.52   -0.40
#   4    5.61   -1.20    0.17   -2.54    0.51    0.00    0.00       2.54   -8.20    1.63
#   5   -1.86   -1.32    0.28    1.49   -0.63    0.00    0.00      -2.04    5.08   -2.16
#   6    1.30   -2.40    1.00   -2.48    0.48    0.00    0.00      -2.11   -6.76    1.30
#   7   -0.69   -0.91    0.18    0.27   -0.16    0.00    0.00      -1.32    1.23   -0.74
#   8    0.20   -1.14    0.67   -0.38   -0.08    0.00    0.00      -0.74   -2.04   -0.45
#   9    0.13   -0.40    0.06   -0.15   -0.06    0.00    0.00      -0.41   -1.24   -0.48
#  10    0.70   -0.23    0.01   -0.18   -0.04    0.00    0.00       0.25   -1.93   -0.45
#  11   -1.05   -0.43    0.02    0.34   -0.13    0.00    0.00      -1.24    1.95   -0.74
#  12    5.01   -0.70    0.08   -1.82    0.35    0.00    0.00       2.92   -8.23    1.59
#  13  -15.16   -0.93    0.19    3.81   -0.50    0.00    0.00     -12.60   16.31   -2.16
#  14   29.93   -4.04   10.30   -5.80    0.26    0.00    0.00      30.65  -19.31    0.85
#  15  -15.99   -0.03    0.00    3.12    0.10    0.00    0.00     -12.79   14.08    0.47
#  16  -31.23   -0.52    0.92    4.58    0.20    0.00    0.00     -26.05   12.24    0.54
#  17   15.31   -0.77    0.09   -3.91    0.35    0.00    0.00      11.07  -17.79    1.61
#  18   -2.90   -1.83    1.26    0.79   -0.12    0.00    0.00      -2.80    2.38   -0.37
#  19   -1.89   -0.82    0.12    0.42   -0.03    0.00    0.00      -2.20    1.28   -0.10
#  20    6.91   -1.83    0.67   -1.73   -0.08    0.00    0.00       3.93   -3.75   -0.18
#  21    3.41   -0.96    0.16   -1.68    0.25    0.00    0.00       1.17   -5.66    0.83
#  22   -0.66   -0.55    0.03    0.38   -0.06    0.00    0.00      -0.85    2.02   -0.31
#  23    1.01   -1.08    0.62   -0.51   -0.07    0.00    0.00      -0.03   -2.92   -0.39
#  24    0.19   -0.74    0.37   -0.15   -0.06    0.00    0.00      -0.40   -1.11   -0.47
#  25    0.28   -0.21    0.01   -0.15   -0.04    0.00    0.00      -0.11   -1.70   -0.40
#  26    0.06   -0.18    0.00   -0.03   -0.02    0.00    0.00      -0.17   -0.49   -0.33
#  27    0.48   -0.34    0.01   -0.26   -0.06    0.00    0.00      -0.18   -2.01   -0.45
#  28    0.07   -0.07    0.00   -0.02   -0.01    0.00    0.00      -0.03   -0.33   -0.15
#  29    0.15   -0.14    0.00   -0.08   -0.02    0.00    0.00      -0.08   -0.88   -0.20
#  30    0.13   -0.11    0.00   -0.07   -0.02    0.00    0.00      -0.06   -0.94   -0.25
#  31    0.15   -0.10    0.00   -0.05   -0.01    0.00    0.00      -0.02   -0.84   -0.25
#  32    0.11   -0.08    0.00   -0.05   -0.01    0.00    0.00      -0.04   -0.83   -0.25
#  33    0.15   -0.08    0.00   -0.04   -0.01    0.00    0.00       0.02   -0.79   -0.20
#  34    4.26   -1.42    0.15   -1.47    0.44    0.00    0.00       1.95   -2.91    0.86
#  35   -2.12   -1.55    0.32    0.50   -0.14    0.00    0.00      -2.99    1.13   -0.31
#  36    4.62   -2.77    2.01   -1.07   -0.18    0.00    0.00       2.60   -2.21   -0.38
#  37    2.28   -2.79    1.37   -0.44   -0.24    0.00    0.00       0.18   -0.85   -0.47
#  38    4.97   -1.84    0.40   -0.73   -0.19    0.00    0.00       2.60   -1.55   -0.40
#  39    0.75   -1.08    0.09   -0.11   -0.12    0.00    0.00      -0.47   -0.32   -0.33
#  40    2.28   -1.23    0.11   -0.57   -0.17    0.00    0.00       0.42   -1.47   -0.45
#  41    1.01   -0.53    0.02   -0.11   -0.05    0.00    0.00       0.35   -0.36   -0.15
#  42    2.31   -0.41    0.02   -0.23   -0.05    0.00    0.00       1.63   -1.03   -0.20
#  43    1.93   -0.35    0.01   -0.24   -0.05    0.00    0.00       1.30   -1.15   -0.25
#  44    2.49   -0.64    0.05   -0.30   -0.08    0.00    0.00       1.53   -0.99   -0.25
#  45    3.08   -0.88    0.11   -0.34   -0.10    0.00    0.00       1.87   -0.86   -0.25
#  46    2.91   -1.04    0.15   -0.34   -0.08    0.00    0.00       1.59   -0.80   -0.20
#  47   -1.76   -0.57    0.13    0.60   -0.15    0.00    0.00      -1.75    1.12   -0.28
#  48   -1.12   -0.96    1.89    0.23   -0.11    0.00    0.00      -0.06    0.52   -0.24
#  49   -1.04   -0.35    0.06    0.13   -0.12    0.00    0.00      -1.31    0.31   -0.28
#  50   -1.25   -0.60    0.39    0.49   -0.07    0.00    0.00      -1.04    1.61   -0.22
#  51   -0.78   -0.20    0.01    0.17   -0.06    0.00    0.00      -0.86    0.84   -0.28
#  52   -0.30   -0.52    0.20    0.05   -0.09    0.00    0.00      -0.66    0.16   -0.28
#  53   -5.04   -0.02    0.00    1.21    0.10    0.00    0.00      -3.75    6.17    0.53
#  54   -0.55   -0.05    0.00    1.09    0.15    0.00    0.00       0.65    3.38    0.45
#  55   -0.18   -0.39    0.33    0.48   -0.04    0.00    0.00       0.19    2.36   -0.22
#  56   -0.07   -0.05    0.00    0.22   -0.01    0.00    0.00       0.09    4.37   -0.28
#  57   -1.06   -0.03    0.00    0.18   -0.01    0.00    0.00      -0.91    5.94   -0.22
#  58   -6.85    0.00    0.00    0.71    0.03    0.00    0.00      -6.12   12.34    0.44
#  59   -5.00   -1.07    1.40    1.35   -0.09    0.00    0.00      -3.41    3.84   -0.26
#  60   -4.99   -1.44    3.40    2.12   -0.11    0.00    0.00      -1.00    5.65   -0.28
#  61   -1.85   -0.11    0.00    0.29   -0.02    0.00    0.00      -1.70    2.72   -0.22
#  62   -2.74   -0.39    0.06    0.50   -0.11    0.00    0.00      -2.68    1.24   -0.28
#  63   -4.21   -1.49    2.18    1.33   -0.14    0.00    0.00      -2.33    2.59   -0.28
#  64   -3.07   -0.68    0.37    0.20   -0.11    0.00    0.00      -3.28    0.46   -0.24
#  65   -1.43   -0.43    0.43    0.52   -0.03    0.00    0.00      -0.95    2.96   -0.19
#  66   -0.30   -0.21    0.14    0.20   -0.03    0.00    0.00      -0.21    1.65   -0.28
#  67   -0.18   -0.02    0.00    0.02   -0.01    0.00    0.00      -0.18    0.89   -0.24
#  68   -0.39   -0.09    0.00    0.15   -0.03    0.00    0.00      -0.35    1.61   -0.28
#  69   -0.09   -0.01    0.00    0.02   -0.01    0.00    0.00      -0.09    0.74   -0.27
#  70   -0.11   -0.07    0.00    0.03   -0.02    0.00    0.00      -0.16    0.46   -0.25
#  71   -0.09   -0.05    0.00    0.04   -0.01    0.00    0.00      -0.11    0.75   -0.28
#  72   -0.07   -0.05    0.00    0.02   -0.01    0.00    0.00      -0.11    0.47   -0.28
#  73   -0.06   -0.02    0.00    0.01   -0.01    0.00    0.00      -0.07    0.52   -0.28
#  74   -0.09   -0.04    0.00    0.01   -0.01    0.00    0.00      -0.12    0.33   -0.28
#  75   -0.08   -0.03    0.00    0.01   -0.01    0.00    0.00      -0.11    0.31   -0.28
#  76   -0.05   -0.04    0.00    0.01   -0.01    0.00    0.00      -0.09    0.31   -0.28
#  77   -0.05   -0.02    0.00    0.01   -0.01    0.00    0.00      -0.06    0.44   -0.28
#  78   -0.06   -0.02    0.00    0.01   -0.01    0.00    0.00      -0.08    0.37   -0.28
#  79   -0.26   -0.03    0.00    0.01   -0.01    0.00    0.00      -0.28    0.37   -0.25
#  80   -2.74   -0.80    0.58    0.88   -0.09    0.00    0.00      -2.18    1.85   -0.19
#  81   -4.55   -0.71    0.18    1.03   -0.17    0.00    0.00      -4.21    1.71   -0.28
#  82   -5.30   -0.48    0.19    0.52   -0.10    0.00    0.00      -5.16    1.27   -0.24
#  83   -1.01   -0.34    0.06    0.30   -0.09    0.00    0.00      -1.08    0.98   -0.28
#  84   -1.06   -0.17    0.01    0.11   -0.05    0.00    0.00      -1.16    0.64   -0.27
#  85   -2.17   -0.22    0.03    0.13   -0.05    0.00    0.00      -2.27    0.70   -0.25
#  86   -0.92   -0.10    0.00    0.10   -0.03    0.00    0.00      -0.94    1.13   -0.28
#  87   -0.81   -0.09    0.00    0.07   -0.02    0.00    0.00      -0.85    0.78   -0.28
#  88   -0.70   -0.09    0.00    0.05   -0.02    0.00    0.00      -0.77    0.58   -0.28
#  89   -1.38   -0.41    0.17    0.13   -0.08    0.00    0.00      -1.56    0.46   -0.28
#  90   -1.13   -0.16    0.01    0.06   -0.05    0.00    0.00      -1.26    0.38   -0.28
#  91   -1.69   -0.55    0.39    0.10   -0.10    0.00    0.00      -1.85    0.28   -0.28
#  92   -1.74   -0.25    0.04    0.09   -0.07    0.00    0.00      -1.92    0.39   -0.28
#  93   -1.72   -0.49    0.12    0.09   -0.12    0.00    0.00      -2.12    0.22   -0.28
#  94   -2.03   -0.45    0.11    0.16   -0.09    0.00    0.00      -2.30    0.46   -0.25

@<TRIPOS>MOLECULE
          T542140        25
   94    98     0     0     0



@<TRIPOS>ATOM
      1 C1          8.8699    -9.3200    98.8635 C.3        1          -0.1809
      2 C2          8.1196    -8.8588    97.6125 C.3        1           0.0700
      3 C3          7.6422   -10.0805    96.8247 C.3        1           0.1404
      4 N1          7.3628    -9.6903    95.4405 N.pl3      1          -0.6995
      5 C4          6.9170   -10.6297    94.5367 C.2        1           0.4614
      6 N2          6.7440   -11.8635    94.9125 N.2        1          -0.7279
      7 C5          6.6341   -10.2348    93.1354 C.ar       1           0.1393
      8 C6          6.1774   -11.1907    92.2277 C.ar       1          -0.0907
      9 C7          5.9154   -10.8126    90.9210 C.ar       1          -0.0524
     10 C8          6.1177    -9.4898    90.5606 C.ar       1          -0.0987
     11 C9          6.5760    -8.5850    91.5179 C.ar       1           0.0779
     12 N3          6.8124    -8.9776    92.7604 N.ar       1          -0.4364
     13 C10         6.7961    -7.1675    91.1416 C.cat      1           0.5984
     14 N4          6.6470    -6.2281    92.0297 N.pl3      1          -0.7125
     15 H1          6.3920    -6.4551    92.9376 H          1           0.4339
     16 H2          6.7909    -5.3009    91.7837 H          1           0.4546
     17 N5          7.1582    -6.8453    89.8521 N.pl3      1          -0.6563
     18 C11         7.3754    -5.4449    89.4805 C.3        1           0.0819
     19 C12         7.7653    -5.3638    88.0032 C.3        1           0.0715
     20 C13         8.4623    -4.0290    87.7322 C.3        1          -0.1833
     21 O1          6.5910    -5.4608    87.1947 O.3        1          -0.3141
     22 C14         6.2067    -6.7069    86.8120 C.ar       1           0.1175
     23 C15         7.0607    -7.4954    86.0542 C.ar       1          -0.2139
     24 C16         6.6680    -8.7616    85.6668 C.ar       1          -0.0743
     25 C17         5.4248    -9.2437    86.0335 C.ar       1          -0.1404
     26 C18         4.5719    -8.4599    86.7881 C.ar       1          -0.0295
     27 C19         4.9624    -7.1947    87.1830 C.ar       1          -0.1448
     28 C20         3.2177    -8.9882    87.1855 C.3        1          -0.0504
     29 C21         2.1280    -8.0763    86.6181 C.3        1          -0.1091
     30 C22         0.7530    -8.6126    87.0214 C.3        1          -0.1210
     31 C23         0.6464    -8.6463    88.5474 C.3        1          -0.1230
     32 C24         1.7360    -9.5582    89.1148 C.3        1          -0.1212
     33 C25         3.1111    -9.0219    88.7113 C.3        1          -0.1108
     34 O2          6.9921    -8.0696    97.9970 O.3        1          -0.3072
     35 C26         6.5945    -7.0993    97.1325 C.ar       1           0.1312
     36 C27         7.4678    -6.0791    96.7834 C.ar       1          -0.2171
     37 C28         7.0614    -5.0945    95.9041 C.ar       1          -0.0754
     38 C29         5.7854    -5.1248    95.3718 C.ar       1          -0.1509
     39 C30         4.9133    -6.1398    95.7185 C.ar       1          -0.0332
     40 C31         5.3168    -7.1304    96.5931 C.ar       1          -0.1526
     41 C32         3.5234    -6.1695    95.1369 C.3        1          -0.0490
     42 C33         3.6102    -6.2610    93.6121 C.3        1          -0.1066
     43 C34         2.1990    -6.2912    93.0217 C.3        1          -0.1206
     44 C35         1.4546    -5.0134    93.4143 C.3        1          -0.1224
     45 C36         1.3676    -4.9219    94.9392 C.3        1          -0.1215
     46 C37         2.7788    -4.8918    95.5296 C.3        1          -0.1112
     47 H3          9.2101    -8.4497    99.4248 H          1           0.0790
     48 H4          8.2043    -9.9168    99.4871 H          1           0.0709
     49 H5          9.7300    -9.9219    98.5701 H          1           0.0747
     50 H6          8.7853    -8.2619    96.9890 H          1           0.0789
     51 H7          8.4176   -10.8464    96.8369 H          1           0.0911
     52 H8          6.7345   -10.4751    97.2813 H          1           0.0848
     53 H9          7.4916    -8.7706    95.1605 H          1           0.4094
     54 H10         6.4301   -12.5248    94.2761 H          1           0.3509
     55 H11         6.0302   -12.2139    92.5401 H          1           0.1633
     56 H12         5.5615   -11.5332    90.1988 H          1           0.1701
     57 H13         5.9230    -9.1635    89.5497 H          1           0.1528
     58 H14         7.2691    -7.5456    89.1902 H          1           0.4407
     59 H15         6.4589    -4.8787    89.6461 H          1           0.1090
     60 H16         8.1759    -5.0271    90.0909 H          1           0.1208
     61 H17         8.4421    -6.1830    87.7606 H          1           0.0937
     62 H18         8.7401    -3.9713    86.6798 H          1           0.0781
     63 H19         7.7855    -3.2098    87.9748 H          1           0.0825
     64 H20         9.3580    -3.9551    88.3490 H          1           0.0830
     65 H21         8.0316    -7.1192    85.7673 H          1           0.1276
     66 H22         7.3321    -9.3756    85.0767 H          1           0.1288
     67 H23         5.1195   -10.2341    85.7296 H          1           0.1278
     68 H24         4.2975    -6.5844    87.7763 H          1           0.1291
     69 H25         3.0903    -9.9959    86.7900 H          1           0.0798
     70 H26         2.2553    -7.0685    87.0136 H          1           0.0660
     71 H27         2.2039    -8.0523    85.5310 H          1           0.0613
     72 H28        -0.0233    -7.9628    86.6172 H          1           0.0651
     73 H29         0.6257    -9.6203    86.6260 H          1           0.0624
     74 H30         0.7737    -7.6385    88.9428 H          1           0.0629
     75 H31        -0.3332    -9.0283    88.8348 H          1           0.0643
     76 H32         1.6600    -9.5822    90.2018 H          1           0.0659
     77 H33         1.6088   -10.5659    88.7193 H          1           0.0627
     78 H34         3.8873    -9.6716    89.1156 H          1           0.0636
     79 H35         3.2383    -8.0143    89.1068 H          1           0.0661
     80 H36         8.4643    -6.0548    97.1990 H          1           0.1283
     81 H37         7.7407    -4.3000    95.6323 H          1           0.1251
     82 H38         5.4696    -4.3539    94.6845 H          1           0.1234
     83 H39         4.6367    -7.9256    96.8601 H          1           0.1266
     84 H40         2.9863    -7.0360    95.5229 H          1           0.0782
     85 H41         4.1471    -5.3945    93.2262 H          1           0.0655
     86 H42         4.1406    -7.1713    93.3325 H          1           0.0572
     87 H43         2.2610    -6.3563    91.9354 H          1           0.0626
     88 H44         1.6622    -7.1577    93.4078 H          1           0.0616
     89 H45         1.9916    -4.1469    93.0284 H          1           0.0627
     90 H46         0.4492    -5.0349    92.9937 H          1           0.0635
     91 H47         0.8374    -4.0117    95.2189 H          1           0.0658
     92 H48         0.8308    -5.7885    95.3251 H          1           0.0625
     93 H49         2.7169    -4.8266    96.6158 H          1           0.0647
     94 H50         3.3158    -4.0252    95.1436 H          1           0.0659
@<TRIPOS>BOND
     1    1    2 1
     2    1   47 1
     3    1   48 1
     4    1   49 1
     5    2    3 1
     6    2   34 1
     7    2   50 1
     8    3    4 1
     9    3   51 1
    10    3   52 1
    11    4    5 1
    12    4   53 1
    13    5    6 2
    14    5    7 1
    15    6   54 1
    16    7   12 ar
    17    7    8 ar
    18    8    9 ar
    19    8   55 1
    20    9   10 ar
    21    9   56 1
    22   10   11 ar
    23   10   57 1
    24   11   12 ar
    25   11   13 1
    26   13   14 2
    27   13   17 1
    28   14   15 1
    29   14   16 1
    30   17   18 1
    31   17   58 1
    32   18   19 1
    33   18   59 1
    34   18   60 1
    35   19   20 1
    36   19   21 1
    37   19   61 1
    38   20   62 1
    39   20   63 1
    40   20   64 1
    41   21   22 1
    42   22   27 ar
    43   22   23 ar
    44   23   24 ar
    45   23   65 1
    46   24   25 ar
    47   24   66 1
    48   25   26 ar
    49   25   67 1
    50   26   27 ar
    51   26   28 1
    52   27   68 1
    53   28   33 1
    54   28   29 1
    55   28   69 1
    56   29   30 1
    57   29   70 1
    58   29   71 1
    59   30   31 1
    60   30   72 1
    61   30   73 1
    62   31   32 1
    63   31   74 1
    64   31   75 1
    65   32   33 1
    66   32   76 1
    67   32   77 1
    68   33   78 1
    69   33   79 1
    70   34   35 1
    71   35   40 ar
    72   35   36 ar
    73   36   37 ar
    74   36   80 1
    75   37   38 ar
    76   37   81 1
    77   38   39 ar
    78   38   82 1
    79   39   40 ar
    80   39   41 1
    81   40   83 1
    82   41   46 1
    83   41   42 1
    84   41   84 1
    85   42   43 1
    86   42   85 1
    87   42   86 1
    88   43   44 1
    89   43   87 1
    90   43   88 1
    91   44   45 1
    92   44   89 1
    93   44   90 1
    94   45   46 1
    95   45   91 1
    96   45   92 1
    97   46   93 1
    98   46   94 1
##########                 Name:              T528462
##########          Protonation:                   18
##########               SMILES:   C[C@H]1NC(=[NH2+])NC(=[NH2+])N1OCc2cccc3c2cccc3
##########            Long Name:   iumylidene-6-methyl-1-(1-naphthylmethoxy)-1,3,5-triazinan-2-ylidene]ammonium
##########          FlexRecCode: 1
##########               Number:                    2
##########   Ligand Source File: /raidb/db2/rgc/tcams/tcams-0000612.db2.gz
##########           GlobalRank: 236
##########                 Rank:                    1
##########               Setnum:                   79
##########             Matchnum:                  730
##########                Cloud:                    1
##########        Electrostatic:           -49.885120
##########        Van der Waals:           -24.857803
##########  Ligand Polar Desolv:            12.491957
########## Ligand Apolar Desolv:            -3.553569
##########      Internal Energy:             0.000000
##########      Receptor Energy: 0.0
########## Receptor Desolvation:             0.000000
########## Receptor Hydrophobic:             0.000000
##########         Total Energy: -65.8
##########        Ligand Charge:             2.000000
##########            Arbitrary:    +999.9990
##########     heavy atom count:   21
##########           pose count:    1
##########        Ligand Energy:             0.000000
# num electro vdwattr vdwrepu polsolv apolsol rdesolv rhydroe totalscore fullpol fullapo
#   1    4.98   -1.60    0.42   -3.93   -0.10    0.00    0.00      -0.23   -8.05   -0.20
#   2   -7.08   -0.83    0.07    7.73   -0.47    0.00    0.00      -0.58   17.44   -1.05
#   3   14.44   -1.14    0.10  -14.03    0.68    0.00    0.00       0.06  -34.27    1.67
#   4  -13.61   -0.67    0.02   10.02   -1.17    0.00    0.00      -5.41   38.81   -4.53
#   5   12.82   -0.77    0.04   -9.41    0.26    0.00    0.00       2.93  -32.60    0.89
#   6  -12.33   -0.02    0.00    5.89    0.15    0.00    0.00      -6.31   23.91    0.60
#   7   -6.73   -0.01    0.00    3.21    0.08    0.00    0.00      -3.45   24.61    0.60
#   8   10.32   -0.52    0.01   -6.38    0.22    0.00    0.00       3.66  -32.73    1.15
#   9  -15.55   -0.65    0.02    8.63   -1.01    0.00    0.00      -8.55   37.22   -4.37
#  10   21.09   -1.21    0.35   -8.40    0.25    0.00    0.00      12.08  -30.27    0.89
#  11  -17.74   -0.03    0.00    5.10    0.13    0.00    0.00     -12.54   24.26    0.60
#  12  -17.41   -0.02    0.00    4.30    0.12    0.00    0.00     -13.01   21.84    0.60
#  13    7.81   -0.88    0.05   -7.02    0.29    0.00    0.00       0.25  -22.70    0.93
#  14    0.90   -0.90    0.08   -1.38    0.14    0.00    0.00      -1.15   -4.04    0.42
#  15   -0.62   -0.71    0.14    0.81   -0.03    0.00    0.00      -0.40    2.87   -0.11
#  16    0.68   -1.35    0.24   -0.47   -0.14    0.00    0.00      -1.04   -1.40   -0.41
#  17    0.35   -1.34    0.14   -0.65   -0.15    0.00    0.00      -1.66   -1.69   -0.40
#  18    2.09   -1.53    0.18   -0.82   -0.21    0.00    0.00      -0.30   -1.74   -0.44
#  19    1.58   -2.47    0.55   -1.74   -0.27    0.00    0.00      -2.35   -3.04   -0.47
#  20    2.40   -2.86    0.79   -1.28   -0.28    0.00    0.00      -1.23   -2.14   -0.47
#  21    1.36   -2.21    0.71   -1.26   -0.25    0.00    0.00      -1.64   -2.33   -0.46
#  22    0.52   -1.66    0.40   -0.66   -0.17    0.00    0.00      -1.56   -1.53   -0.40
#  23    0.50   -1.50    0.22   -1.36   -0.21    0.00    0.00      -2.35   -2.92   -0.46
#  24    0.53   -1.65    0.27   -0.95   -0.19    0.00    0.00      -2.00   -2.32   -0.47
#  25    0.12   -2.08    0.93   -0.92   -0.15    0.00    0.00      -2.11   -2.66   -0.44
#  26   -1.91   -0.61    0.15    2.21   -0.14    0.00    0.00      -0.30    4.24   -0.26
#  27   -3.37   -1.05    1.30    1.67   -0.12    0.00    0.00      -1.57    3.87   -0.28
#  28   -3.22   -0.41    0.09    0.78   -0.09    0.00    0.00      -2.85    2.42   -0.28
#  29   -2.70   -0.42    0.11    2.81   -0.10    0.00    0.00      -0.31    7.57   -0.28
#  30  -11.32   -0.03    0.00    8.93    0.23    0.00    0.00      -2.19   23.12    0.59
#  31   -5.89   -0.01    0.00    1.79    0.04    0.00    0.00      -4.06   26.91    0.59
#  32   -0.12   -0.37    0.27    0.97   -0.05    0.00    0.00       0.70    5.21   -0.28
#  33   -1.48   -0.15    0.01    0.83   -0.04    0.00    0.00      -0.84    5.55   -0.28
#  34   -2.04   -0.26    0.04    1.70   -0.06    0.00    0.00      -0.62    6.90   -0.24
#  35   -2.12   -1.06    1.43    1.81   -0.16    0.00    0.00      -0.10    3.13   -0.28
#  36   -3.68   -1.16    0.98    0.80   -0.17    0.00    0.00      -3.23    1.31   -0.28
#  37   -1.97   -0.49    0.17    0.39   -0.13    0.00    0.00      -2.03    0.85   -0.28
#  38   -1.04   -0.28    0.02    0.35   -0.10    0.00    0.00      -1.05    0.95   -0.28
#  39   -0.79   -0.40    0.12    0.82   -0.09    0.00    0.00      -0.35    2.49   -0.28
#  40    0.35   -0.75    0.78    1.59   -0.06    0.00    0.00       1.91    5.94   -0.24

@<TRIPOS>MOLECULE
          T528462        18
   40    42     0     0     0



@<TRIPOS>ATOM
      1 C1          2.5594    -5.0633    96.6238 C.3        1          -0.1911
      2 C2          2.5942    -6.5521    96.2729 C.3        1           0.3772
      3 N1          1.4134    -6.9026    95.4623 N.pl3      1          -0.7165
      4 C3          1.4148    -6.4977    94.1347 C.cat      1           0.7713
      5 N2          0.3650    -5.9656    93.5766 N.pl3      1          -0.6661
      6 H1         -0.4481    -5.8428    94.0913 H          1           0.4689
      7 H2          0.3962    -5.6924    92.6465 H          1           0.4603
      8 N3          2.6028    -6.6919    93.4326 N.pl3      1          -0.6791
      9 C4          3.7782    -6.4437    94.1393 C.cat      1           0.7675
     10 N4          4.8047    -5.8641    93.5853 N.pl3      1          -0.6469
     11 H3          4.7646    -5.5921    92.6552 H          1           0.4601
     12 H4          5.6095    -5.7047    94.1028 H          1           0.4722
     13 N5          3.7930    -6.8482    95.4670 N.pl3      1          -0.5018
     14 O1          4.9108    -7.5161    96.0233 O.3        1          -0.0763
     15 C5          5.6436    -8.3047    95.0836 C.3        1           0.0678
     16 C6          6.4698    -9.3264    95.8215 C.ar       1          -0.1112
     17 C7          7.2043    -8.9523    96.9598 C.ar       1          -0.0334
     18 C8          7.1885    -7.6303    97.4366 C.ar       1          -0.1366
     19 C9          7.9120    -7.3047    98.5424 C.ar       1          -0.0880
     20 C10         8.6705    -8.2634    99.2117 C.ar       1          -0.1134
     21 C11         8.7101    -9.5530    98.7787 C.ar       1          -0.0889
     22 C12         7.9755    -9.9272    97.6405 C.ar       1          -0.0513
     23 C13         7.9904   -11.2494    97.1643 C.ar       1          -0.0712
     24 C14         7.2663   -11.5752    96.0591 C.ar       1          -0.1272
     25 C15         6.5042   -10.6174    95.3923 C.ar       1          -0.0817
     26 H5          1.6715    -4.8509    97.2192 H          1           0.0664
     27 H6          3.4506    -4.8037    97.1951 H          1           0.1213
     28 H7          2.5314    -4.4745    95.7069 H          1           0.1201
     29 H8          2.6066    -7.1468    97.1862 H          1           0.1814
     30 H9          0.6681    -7.3952    95.8403 H          1           0.4669
     31 H10         2.6113    -6.9828    92.5073 H          1           0.4794
     32 H11         4.9484    -8.8133    94.4158 H          1           0.0954
     33 H12         6.3003    -7.6587    94.5009 H          1           0.0841
     34 H13         6.6057    -6.8768    96.9279 H          1           0.1173
     35 H14         7.8984    -6.2880    98.9065 H          1           0.1298
     36 H15         9.2356    -7.9786   100.0869 H          1           0.1344
     37 H16         9.3029   -10.2851    99.3070 H          1           0.1387
     38 H17         8.5737   -12.0029    97.6726 H          1           0.1394
     39 H18         7.2797   -12.5919    95.6950 H          1           0.1347
     40 H19         5.9353   -10.9032    94.5200 H          1           0.1260
@<TRIPOS>BOND
     1    1    2 1
     2    1   26 1
     3    1   27 1
     4    1   28 1
     5    2   13 1
     6    2    3 1
     7    2   29 1
     8    3    4 1
     9    3   30 1
    10    4    5 2
    11    4    8 1
    12    5    6 1
    13    5    7 1
    14    8    9 1
    15    8   31 1
    16    9   10 2
    17    9   13 1
    18   10   11 1
    19   10   12 1
    20   13   14 1
    21   14   15 1
    22   15   16 1
    23   15   32 1
    24   15   33 1
    25   16   25 ar
    26   16   17 ar
    27   17   22 ar
    28   17   18 ar
    29   18   19 ar
    30   18   34 1
    31   19   20 ar
    32   19   35 1
    33   20   21 ar
    34   20   36 1
    35   21   22 ar
    36   21   37 1
    37   22   23 ar
    38   23   24 ar
    39   23   38 1
    40   24   25 ar
    41   24   39 1
    42   25   40 1
##########                 Name:              T527344
##########          Protonation:                   31
##########               SMILES:   CC(C)(C[NH3+])c1[nH]c(c(n1)c2ccc(c(c2)O)Cl)c3ccnc(n3)N
##########            Long Name:   yl)-4-(4-chloro-3-hydroxy-phenyl)-1H-imidazol-2-yl]-2-methyl-propyl]ammonium
##########          FlexRecCode: 1
##########               Number:                  180
##########   Ligand Source File: /raidb/db2/rgc/tcams/tcams-0000271.db2.gz
##########           GlobalRank: 237
##########                 Rank:                    1
##########               Setnum:                  455
##########             Matchnum:                 1002
##########                Cloud:                    1
##########        Electrostatic:           -47.796368
##########        Van der Waals:           -25.728329
##########  Ligand Polar Desolv:             8.800468
########## Ligand Apolar Desolv:            -1.054772
##########      Internal Energy:             0.000000
##########      Receptor Energy: 0.0
########## Receptor Desolvation:             0.000000
########## Receptor Hydrophobic:             0.000000
##########         Total Energy: -65.78
##########        Ligand Charge:             1.000000
##########            Arbitrary:    +999.9990
##########     heavy atom count:   25
##########           pose count:    1
##########        Ligand Energy:             0.000000
# num electro vdwattr vdwrepu polsolv apolsol rdesolv rhydroe totalscore fullpol fullapo
#   1    4.99   -0.91    0.09   -2.12   -0.06    0.00    0.00       1.98   -5.21   -0.15
#   2   -0.13   -0.45    0.01    0.11   -0.02    0.00    0.00      -0.47    0.44   -0.08
#   3    2.58   -0.51    0.03   -1.32   -0.04    0.00    0.00       0.73   -4.76   -0.16
#   4   -0.25   -0.52    0.04    0.25   -0.09    0.00    0.00      -0.57    1.02   -0.38
#   5   25.00   -1.98    2.65   -6.42    0.23    0.00    0.00      19.48  -23.66    0.84
#   6  -24.34   -0.13    0.05    5.15    0.13    0.00    0.00     -19.15   18.58    0.46
#   7  -12.58   -0.01    0.00    2.72    0.07    0.00    0.00      -9.81   18.80    0.46
#   8  -18.49   -0.04    0.00    4.51    0.14    0.00    0.00     -13.89   19.47    0.60
#   9   -3.33   -0.80    0.07    1.36   -0.45    0.00    0.00      -3.14    5.42   -1.78
#  10    4.66   -0.88    0.15   -1.70    0.45    0.00    0.00       2.68   -7.26    1.93
#  11   -0.92   -1.09    0.20    0.16   -0.20    0.00    0.00      -1.85    0.57   -0.73
#  12   -0.43   -1.09    0.10   -0.02   -0.25    0.00    0.00      -1.69   -0.07   -0.74
#  13    7.75   -0.99    0.06   -3.07    0.38    0.00    0.00       4.12   -8.79    1.09
#  14   -3.07   -1.35    0.14    0.85   -0.25    0.00    0.00      -3.68    2.16   -0.63
#  15    4.56   -1.73    0.20   -1.49   -0.23    0.00    0.00       1.31   -2.87   -0.45
#  16   -4.05   -2.40    0.49    0.84   -0.57    0.00    0.00      -5.69    1.44   -0.98
#  17    8.70   -2.31    0.69   -1.66    1.13    0.00    0.00       6.56   -3.05    2.08
#  18   -5.73   -1.83    0.62    1.17   -2.40    0.00    0.00      -8.16    2.42   -4.94
#  19    6.27   -1.82    0.26   -2.82    0.54    0.00    0.00       2.43   -4.94    0.95
#  20    4.34   -1.46    0.20   -1.29    0.51    0.00    0.00       2.31   -3.33    1.33
#  21   -0.03   -1.07    0.18    0.04   -0.10    0.00    0.00      -0.98    0.15   -0.39
#  22    0.53   -1.25    0.78   -0.08   -0.08    0.00    0.00      -0.11   -0.38   -0.36
#  23    0.70   -0.90    0.37   -0.10   -0.09    0.00    0.00      -0.01   -0.52   -0.46
#  24    0.43   -0.87    0.08   -0.12   -0.08    0.00    0.00      -0.55   -0.42   -0.29
#  25    0.48   -3.78    2.37   -0.09   -0.27    0.00    0.00      -1.28   -0.32   -0.97
#  26   -0.94   -1.35    0.21    0.17   -0.10    0.00    0.00      -2.01    0.52   -0.31
#  27    7.84   -3.37    3.39   -1.27    0.49    0.00    0.00       7.08   -2.98    1.15
#  28    0.29   -1.67    0.49   -0.24   -0.15    0.00    0.00      -1.28   -0.74   -0.45
#  29   -2.99   -0.32    0.03    0.45   -0.09    0.00    0.00      -2.92    1.28   -0.26
#  30   -2.50   -0.35    0.05    0.55   -0.09    0.00    0.00      -2.33    1.81   -0.28
#  31   -1.86   -0.37    0.07    1.63   -0.07    0.00    0.00      -0.60    5.53   -0.23
#  32   -0.49   -0.18    0.03    0.75   -0.03    0.00    0.00       0.08    5.45   -0.23
#  33   -1.31   -0.20    0.01    0.30   -0.07    0.00    0.00      -1.27    1.28   -0.28
#  34   -1.76   -0.13    0.00    0.10   -0.03    0.00    0.00      -1.82    0.84   -0.28
#  35   -2.36   -0.08    0.00    0.32   -0.02    0.00    0.00      -2.14    4.22   -0.28
#  36   -4.30   -0.23    0.03    0.87   -0.06    0.00    0.00      -3.70    3.95   -0.28
#  37   -7.14   -0.02    0.00    2.40    0.15    0.00    0.00      -4.60    8.90    0.57
#  38   -2.31   -0.41    0.13    1.31   -0.11    0.00    0.00      -1.40    3.23   -0.28
#  39   -4.35   -0.77    0.26    1.53   -0.17    0.00    0.00      -3.49    2.57   -0.28
#  40   -2.56   -0.03    0.00    1.47    0.29    0.00    0.00      -0.82    2.95    0.59
#  41   -3.16   -0.02    0.00    1.24    0.25    0.00    0.00      -1.69    2.90    0.59
#  42   -1.67   -0.27    0.12    0.09   -0.03    0.00    0.00      -1.77    0.55   -0.21
#  43   -0.82   -0.13    0.03    0.07   -0.03    0.00    0.00      -0.87    0.69   -0.28
#  44  -13.34   -0.24    0.16    1.70    0.50    0.00    0.00     -11.22    4.10    1.22
#  45    0.29   -0.64    0.35    0.51   -0.09    0.00    0.00       0.42    1.51   -0.28

@<TRIPOS>MOLECULE
          T527344        31
   45    47     0     0     0



@<TRIPOS>ATOM
      1 C1          3.9102    -4.9869    95.2736 C.3        1          -0.1743
      2 C2          3.6939    -6.2742    94.4753 C.3        1           0.0061
      3 C3          2.3227    -6.8612    94.8158 C.3        1          -0.1688
      4 C4          3.7582    -5.9630    92.9787 C.3        1           0.0099
      5 N1          5.1625    -5.8632    92.5591 N.4        1          -0.6390
      6 H1          5.6162    -5.1250    93.0760 H          1           0.4333
      7 H2          5.6308    -6.7382    92.7410 H          1           0.4322
      8 H3          5.2049    -5.6579    91.5721 H          1           0.4438
      9 C5          4.7684    -7.2704    94.8279 C.2        1           0.2223
     10 N2          5.2397    -8.1840    94.0249 N.2        1          -0.4687
     11 C6          6.1856    -8.8981    94.6602 C.2        1           0.1172
     12 C7          6.2998    -8.3847    95.9407 C.2        1           0.0412
     13 N3          5.3938    -7.3502    96.0203 N.pl3      1          -0.5377
     14 C8          7.2102    -8.8488    97.0031 C.ar       1           0.2800
     15 C9          7.6899    -7.9552    97.9706 C.ar       1          -0.2878
     16 C10         8.5409    -8.4370    98.9462 C.ar       1           0.2096
     17 N4          8.8763    -9.7187    98.9394 N.ar       1          -0.5640
     18 C11         8.4086   -10.5429    98.0130 C.ar       1           0.5803
     19 N5          8.7851   -11.8746    98.0436 N.pl3      1          -0.8126
     20 N6          7.5869   -10.1272    97.0626 N.ar       1          -0.5476
     21 C12         6.9617   -10.0261    94.0942 C.ar       1           0.0056
     22 C13         7.7681    -9.8277    92.9734 C.ar       1          -0.0581
     23 C14         8.4903   -10.8799    92.4484 C.ar       1          -0.1016
     24 C15         8.4175   -12.1327    93.0310 C.ar       1          -0.0515
     25 Cl1         9.3291   -13.4513    92.3647 Cl         1          -0.0491
     26 C16         7.6171   -12.3384    94.1476 C.ar       1           0.1112
     27 O1          7.5492   -13.5709    94.7173 O.3        1          -0.4855
     28 C17         6.8927   -11.2873    94.6837 C.ar       1          -0.1009
     29 H4          4.8872    -4.5688    95.0311 H          1           0.0841
     30 H5          3.1331    -4.2664    95.0187 H          1           0.0847
     31 H6          3.8645    -5.2085    96.3398 H          1           0.0727
     32 H7          2.1686    -7.7782    94.2471 H          1           0.0693
     33 H8          2.2769    -7.0830    95.8820 H          1           0.0851
     34 H9          1.5455    -6.1406    94.5608 H          1           0.0852
     35 H10         3.2679    -6.7604    92.4204 H          1           0.1456
     36 H11         3.2523    -5.0177    92.7822 H          1           0.1516
     37 H12         5.2338    -6.7847    96.7922 H          1           0.4277
     38 H13         7.4013    -6.9145    97.9535 H          1           0.1389
     39 H14         8.9290    -7.7755    99.7066 H          1           0.1752
     40 H15         9.3836   -12.1935    98.7371 H          1           0.4204
     41 H16         8.4502   -12.4888    97.3716 H          1           0.4174
     42 H17         7.8266    -8.8510    92.5162 H          1           0.1248
     43 H18         9.1140   -10.7249    91.5804 H          1           0.1386
     44 H19         8.0918   -14.2385    94.2758 H          1           0.3948
     45 H20         6.2733   -11.4448    95.5544 H          1           0.1387
@<TRIPOS>BOND
     1    1    2 1
     2    1   29 1
     3    1   30 1
     4    1   31 1
     5    2    3 1
     6    2    4 1
     7    2    9 1
     8    3   32 1
     9    3   33 1
    10    3   34 1
    11    4    5 1
    12    4   35 1
    13    4   36 1
    14    5    6 1
    15    5    7 1
    16    5    8 1
    17    9   13 1
    18    9   10 2
    19   10   11 1
    20   11   12 2
    21   11   21 1
    22   12   13 1
    23   12   14 1
    24   13   37 1
    25   14   20 ar
    26   14   15 ar
    27   15   16 ar
    28   15   38 1
    29   16   17 ar
    30   16   39 1
    31   17   18 ar
    32   18   19 1
    33   18   20 ar
    34   19   40 1
    35   19   41 1
    36   21   28 ar
    37   21   22 ar
    38   22   23 ar
    39   22   42 1
    40   23   24 ar
    41   23   43 1
    42   24   25 1
    43   24   26 ar
    44   26   27 1
    45   26   28 ar
    46   27   44 1
    47   28   45 1
##########                 Name:              T533155
##########          Protonation:                   25
##########               SMILES:   OC(=O)[C@H](Cc1ccccc1)NC(=O)N[C@@H]2CCN(C2)c3cc[nH+]/c(=N\c4ccc(cc4)F)/[nH]3
##########            Long Name:   methyl
##########          FlexRecCode: 1
##########               Number:                  361
##########   Ligand Source File: /raidb/db2/rgc/tcams/tcams-0001227.db2.gz
##########           GlobalRank: 239
##########                 Rank:                    1
##########               Setnum:                   38
##########             Matchnum:                 2677
##########                Cloud:                    1
##########        Electrostatic:           -35.298950
##########        Van der Waals:           -32.294960
##########  Ligand Polar Desolv:             6.339331
########## Ligand Apolar Desolv:            -4.514124
##########      Internal Energy:             0.000000
##########      Receptor Energy: 0.0
########## Receptor Desolvation:             0.000000
########## Receptor Hydrophobic:             0.000000
##########         Total Energy: -65.77
##########        Ligand Charge:             1.000000
##########            Arbitrary:    +999.9990
##########     heavy atom count:   35
##########           pose count:    1
##########        Ligand Energy:             0.000000
# num electro vdwattr vdwrepu polsolv apolsol rdesolv rhydroe totalscore fullpol fullapo
#   1   -0.03   -0.06    0.00    0.01    0.00    0.00    0.00      -0.08    0.14    0.03
#   2    0.35   -0.12    0.00   -0.14    0.02    0.00    0.00       0.11   -2.02    0.28
#   3   -0.49   -0.12    0.00    0.13   -0.01    0.00    0.00      -0.49    2.49   -0.15
#   4    0.47   -0.08    0.00   -0.08   -0.02    0.00    0.00       0.29   -1.85   -0.41
#   5   -0.24   -0.14    0.00    0.14   -0.02    0.00    0.00      -0.25    1.81   -0.24
#   6    0.11   -0.29    0.01   -0.13   -0.04    0.00    0.00      -0.35   -0.74   -0.21
#   7    0.14   -0.62    0.06   -0.18   -0.07    0.00    0.00      -0.67   -0.92   -0.35
#   8    0.26   -1.17    0.37   -0.29   -0.11    0.00    0.00      -0.95   -1.14   -0.45
#   9    0.72   -1.54    0.39   -0.34   -0.14    0.00    0.00      -0.91   -1.12   -0.47
#  10    0.41   -1.19    0.32   -0.33   -0.12    0.00    0.00      -0.91   -1.27   -0.47
#  11    0.31   -0.68    0.09   -0.28   -0.09    0.00    0.00      -0.66   -1.41   -0.47
#  12    0.20   -0.55    0.05   -0.24   -0.08    0.00    0.00      -0.62   -1.30   -0.42
#  13    1.06   -0.23    0.00   -0.75    0.15    0.00    0.00       0.24   -8.31    1.69
#  14   -1.48   -0.39    0.01    1.11   -0.32    0.00    0.00      -1.08    7.24   -2.10
#  15    1.74   -0.53    0.02   -0.70    0.09    0.00    0.00       0.62   -2.88    0.38
#  16    3.74   -0.44    0.01   -2.17    0.38    0.00    0.00       1.52  -11.86    2.10
#  17   -2.46   -0.49    0.03    0.65   -0.08    0.00    0.00      -2.36    2.48   -0.32
#  18    2.42   -0.68    0.08   -0.86   -0.09    0.00    0.00       0.87   -2.70   -0.29
#  19   -1.43   -0.80    0.15    0.60   -0.15    0.00    0.00      -1.63    1.99   -0.50
#  20   11.49   -0.68    0.02   -3.85    0.49    0.00    0.00       7.47  -14.36    1.82
#  21   -1.75   -0.56    0.04    0.87   -0.13    0.00    0.00      -1.54    2.79   -0.43
#  22  -12.34   -0.74    0.02    4.37   -0.58    0.00    0.00      -9.28   15.36   -2.05
#  23   10.71   -1.21    0.22   -3.22   -0.15    0.00    0.00       6.34   -9.17   -0.44
#  24   -9.29   -1.42    0.29    3.68   -0.39    0.00    0.00      -7.13    9.06   -0.97
#  25   12.48   -1.09    0.09   -5.85    0.35    0.00    0.00       5.98  -15.42    0.93
#  26   -8.99   -0.02    0.00    2.78    0.10    0.00    0.00      -6.13   11.49    0.41
#  27   -7.89   -1.18    0.10    5.14   -1.70    0.00    0.00      -5.52   14.03   -4.64
#  28    8.45   -1.01    0.08   -4.85    0.35    0.00    0.00       3.02  -14.67    1.06
#  29    4.11   -2.52    0.95   -4.79    0.91    0.00    0.00      -1.35  -10.76    2.05
#  30   -0.73   -2.50    1.01    0.91   -0.28    0.00    0.00      -1.59    1.86   -0.58
#  31    1.38   -1.86    0.49   -0.90   -0.16    0.00    0.00      -1.04   -2.10   -0.37
#  32    1.78   -1.83    0.42   -0.79   -0.24    0.00    0.00      -0.65   -1.55   -0.47
#  33   -2.33   -3.03    1.17    0.01   -0.20    0.00    0.00      -4.39    0.01   -0.34
#  34    3.09   -2.66    1.73   -0.64   -0.30    0.00    0.00       1.21   -1.03   -0.48
#  35    2.71   -4.20    1.88   -0.90   -0.30    0.00    0.00      -0.80   -1.41   -0.47
#  36    1.08   -3.44    1.24   -0.81   -0.27    0.00    0.00      -2.21   -1.39   -0.47
#  37   -0.05   -0.02    0.00    0.01   -0.01    0.00    0.00      -0.07    0.45   -0.28
#  38   -0.06   -0.02    0.00    0.01   -0.01    0.00    0.00      -0.08    0.21   -0.28
#  39   -0.08   -0.01    0.00    0.02   -0.01    0.00    0.00      -0.07    1.38   -0.28
#  40   -0.17   -0.04    0.00    0.03   -0.01    0.00    0.00      -0.20    0.62   -0.26
#  41   -0.09   -0.10    0.00    0.16   -0.03    0.00    0.00      -0.05    1.66   -0.28
#  42   -0.13   -0.12    0.01    0.15   -0.03    0.00    0.00      -0.13    1.14   -0.27
#  43   -0.35   -0.32    0.22    0.18   -0.05    0.00    0.00      -0.32    1.00   -0.28
#  44   -3.62   -0.49    0.18    0.27   -0.09    0.00    0.00      -3.75    0.81   -0.28
#  45   -1.04   -0.24    0.06    0.22   -0.05    0.00    0.00      -1.06    1.17   -0.28
#  46   -0.33   -0.09    0.00    0.19   -0.03    0.00    0.00      -0.25    2.15   -0.28
#  47   -0.17   -0.08    0.00    0.23   -0.02    0.00    0.00      -0.04    2.89   -0.27
#  48   -0.54    0.00    0.00    0.26    0.02    0.00    0.00      -0.26    6.87    0.53
#  49   -1.86   -0.01    0.00    0.67    0.04    0.00    0.00      -1.16    9.21    0.58
#  50   -2.73   -0.34    0.19    0.23   -0.06    0.00    0.00      -2.71    0.94   -0.26
#  51   -1.17   -0.31    0.13    0.14   -0.06    0.00    0.00      -1.26    0.70   -0.28
#  52   -2.23   -0.22    0.01    0.43   -0.07    0.00    0.00      -2.08    1.72   -0.28
#  53   -2.03   -0.22    0.04    0.56   -0.05    0.00    0.00      -1.70    2.87   -0.28
#  54   -2.51   -0.50    0.29    0.96   -0.08    0.00    0.00      -1.83    2.95   -0.25
#  55   -3.54   -0.31    0.09    1.02   -0.07    0.00    0.00      -2.80    4.12   -0.28
#  56   -1.67   -0.18    0.01    0.85   -0.06    0.00    0.00      -1.04    4.04   -0.28
#  57   -8.34   -0.46    0.24    2.21   -0.07    0.00    0.00      -6.42    7.68   -0.25
#  58   -9.14   -0.55    0.42    3.99   -0.11    0.00    0.00      -5.40    9.91   -0.28
#  59   -4.99   -0.02    0.00    2.83    0.12    0.00    0.00      -2.05   11.34    0.50
#  60   -0.81   -0.27    0.03    0.95   -0.07    0.00    0.00      -0.17    3.76   -0.28
#  61   -1.79   -0.26    0.02    0.68   -0.09    0.00    0.00      -1.44    2.23   -0.28
#  62   -3.33   -1.73    1.86    0.80   -0.19    0.00    0.00      -2.60    1.18   -0.28
#  63   -2.28   -0.98    0.53    1.02   -0.16    0.00    0.00      -1.87    1.75   -0.28

@<TRIPOS>MOLECULE
          T533155        25
   63    66     0     0     0



@<TRIPOS>ATOM
      1 C1          1.2689   -10.2220    85.7497 C.3        1           0.0331
      2 O1          0.5546    -9.2287    86.4881 O.3        1          -0.3492
      3 C2          0.8858    -9.0739    87.7796 C.2        1           0.4472
      4 O2          1.7534    -9.7590    88.2672 O.2        1          -0.4959
      5 C3          0.1754    -8.0455    88.6216 C.3        1           0.1842
      6 C4          0.3875    -6.6563    88.0166 C.3        1          -0.0850
      7 C5          1.8613    -6.3441    87.9799 C.ar       1          -0.0867
      8 C6          2.4626    -5.7194    89.0565 C.ar       1          -0.1083
      9 C7          3.8146    -5.4330    89.0228 C.ar       1          -0.1132
     10 C8          4.5653    -5.7718    87.9126 C.ar       1          -0.1171
     11 C9          3.9642    -6.3975    86.8364 C.ar       1          -0.1196
     12 C10         2.6131    -6.6876    86.8719 C.ar       1          -0.1139
     13 N1          0.7146    -8.0725    89.9835 N.am       1          -0.7169
     14 C11         0.2271    -7.2326    90.9181 C.2        1           0.7174
     15 O3         -0.6602    -6.4524    90.6308 O.2        1          -0.5729
     16 N2          0.7232    -7.2575    92.1710 N.am       1          -0.7417
     17 C12         0.1933    -6.3445    93.1868 C.3        1           0.1565
     18 C13         0.5052    -4.8819    92.8506 C.3        1          -0.1429
     19 C14         2.0191    -4.8877    93.0404 C.3        1           0.0686
     20 N3          2.2711    -5.8171    94.1408 N.pl3      1          -0.5548
     21 C15         0.9866    -6.4371    94.5034 C.3        1           0.0846
     22 C16         3.4849    -6.0663    94.7284 C.2        1           0.5703
     23 C17         4.6259    -5.4137    94.2921 C.2        1          -0.3291
     24 C18         5.8414    -5.6869    94.9076 C.2        1           0.2878
     25 N4          5.9076    -6.5582    95.8958 N.pl3      1          -0.5941
     26 H1          6.7635    -6.7383    96.3151 H          1           0.4524
     27 C19         4.8166    -7.1971    96.3302 C.2        1           0.5682
     28 N5          3.5885    -6.9593    95.7590 N.pl3      1          -0.5921
     29 N6          4.9190    -8.0657    97.3253 N.2        1          -0.5093
     30 C20         6.1071    -8.2119    97.9853 C.ar       1           0.0660
     31 C21         7.0490    -9.1418    97.5371 C.ar       1          -0.1401
     32 C22         8.2459    -9.2846    98.2076 C.ar       1          -0.1294
     33 C23         8.5153    -8.5085    99.3233 C.ar       1           0.1101
     34 F1          9.6895    -8.6531    99.9755 F          1          -0.1262
     35 C24         7.5858    -7.5843    99.7725 C.ar       1          -0.1291
     36 C25         6.3874    -7.4281    99.1078 C.ar       1          -0.0705
     37 H2          0.9042   -10.2437    84.7229 H          1           0.0621
     38 H3          2.3322    -9.9822    85.7528 H          1           0.0621
     39 H4          1.1151   -11.1977    86.2106 H          1           0.1075
     40 H5         -0.8907    -8.2714    88.6483 H          1           0.1335
     41 H6         -0.0136    -6.6361    87.0034 H          1           0.0874
     42 H7         -0.1263    -5.9124    88.6258 H          1           0.1106
     43 H8          1.8761    -5.4547    89.9238 H          1           0.1274
     44 H9          4.2842    -4.9443    89.8635 H          1           0.1259
     45 H10         5.6214    -5.5475    87.8859 H          1           0.1228
     46 H11         4.5506    -6.6619    85.9689 H          1           0.1204
     47 H12         2.1443    -7.1797    86.0327 H          1           0.1157
     48 H13         1.4224    -8.6949    90.2127 H          1           0.4028
     49 H14         1.4309    -7.8799    92.4002 H          1           0.3980
     50 H15        -0.8730    -6.5027    93.3479 H          1           0.1338
     51 H16         0.2353    -4.6452    91.8214 H          1           0.1114
     52 H17         0.0202    -4.2017    93.5508 H          1           0.1028
     53 H18         2.5123    -5.2348    92.1324 H          1           0.1036
     54 H19         2.3710    -3.8895    93.3008 H          1           0.0978
     55 H20         0.4929    -5.8726    95.2943 H          1           0.1192
     56 H21         1.1274    -7.4768    94.7991 H          1           0.1098
     57 H22         4.5716    -4.7009    93.4827 H          1           0.1932
     58 H23         6.7370    -5.1833    94.5748 H          1           0.2132
     59 H24         2.8014    -7.4247    96.0826 H          1           0.4523
     60 H25         6.8399    -9.7477    96.6678 H          1           0.1337
     61 H26         8.9744   -10.0033    97.8623 H          1           0.1482
     62 H27         7.8020    -6.9821   100.6426 H          1           0.1511
     63 H28         5.6654    -6.7045    99.4565 H          1           0.1455
@<TRIPOS>BOND
     1    1    2 1
     2    1   37 1
     3    1   38 1
     4    1   39 1
     5    2    3 1
     6    3    4 2
     7    3    5 1
     8    5    6 1
     9    5   13 1
    10    5   40 1
    11    6    7 1
    12    6   41 1
    13    6   42 1
    14    7   12 ar
    15    7    8 ar
    16    8    9 ar
    17    8   43 1
    18    9   10 ar
    19    9   44 1
    20   10   11 ar
    21   10   45 1
    22   11   12 ar
    23   11   46 1
    24   12   47 1
    25   13   14 am
    26   13   48 1
    27   14   15 2
    28   14   16 am
    29   16   17 1
    30   16   49 1
    31   17   21 1
    32   17   18 1
    33   17   50 1
    34   18   19 1
    35   18   51 1
    36   18   52 1
    37   19   20 1
    38   19   53 1
    39   19   54 1
    40   20   21 1
    41   20   22 1
    42   21   55 1
    43   21   56 1
    44   22   28 1
    45   22   23 2
    46   23   24 1
    47   23   57 1
    48   24   25 2
    49   24   58 1
    50   25   26 1
    51   25   27 1
    52   27   28 1
    53   27   29 2
    54   28   59 1
    55   29   30 1
    56   30   36 ar
    57   30   31 ar
    58   31   32 ar
    59   31   60 1
    60   32   33 ar
    61   32   61 1
    62   33   34 1
    63   33   35 ar
    64   35   36 ar
    65   35   62 1
    66   36   63 1
##########                 Name:              T540292
##########          Protonation:                   25
##########               SMILES:   c1cc(cc(c1)c2cccc(c2)c3[nH]c4cc(ccc4n3)F)C[NH2+]CCN5CC[NH2+]CC5
##########            Long Name:   benzimidazol-2-yl)phenyl]phenyl]methyl-(2-piperazin-4-ium-1-ylethyl)ammonium
##########          FlexRecCode: 1
##########               Number:                  199
##########   Ligand Source File: /raidb/db2/rgc/tcams/tcams-0001991.db2.gz
##########           GlobalRank: 239
##########                 Rank:                    1
##########               Setnum:                   46
##########             Matchnum:                 2437
##########                Cloud:                    1
##########        Electrostatic:           -70.209694
##########        Van der Waals:           -19.114712
##########  Ligand Polar Desolv:            25.918200
########## Ligand Apolar Desolv:            -2.359145
##########      Internal Energy:             0.000000
##########      Receptor Energy: 0.0
########## Receptor Desolvation:             0.000000
########## Receptor Hydrophobic:             0.000000
##########         Total Energy: -65.77
##########        Ligand Charge:             2.000000
##########            Arbitrary:    +999.9990
##########     heavy atom count:   32
##########           pose count:    1
##########        Ligand Energy:             0.000000
# num electro vdwattr vdwrepu polsolv apolsol rdesolv rhydroe totalscore fullpol fullapo
#   1    0.05   -0.02    0.00   -0.02   -0.01    0.00    0.00       0.00   -0.68   -0.48
#   2   -0.07   -0.05    0.00    0.01   -0.01    0.00    0.00      -0.12    0.28   -0.34
#   3    0.11   -0.05    0.00   -0.03   -0.01    0.00    0.00       0.02   -0.99   -0.47
#   4    0.02   -0.07    0.00   -0.01   -0.02    0.00    0.00      -0.08   -0.37   -0.47
#   5   -0.02   -0.15    0.01   -0.01   -0.05    0.00    0.00      -0.22   -0.13   -0.79
#   6    0.36   -0.38    0.06   -0.30    0.22    0.00    0.00      -0.04   -2.74    2.03
#   7   -0.60   -0.76    0.25    0.47   -0.37    0.00    0.00      -1.01    2.74   -2.13
#   8    1.13   -0.45    0.04   -0.83    0.18    0.00    0.00       0.06   -5.29    1.14
#   9   -0.04   -0.16    0.00    0.02   -0.06    0.00    0.00      -0.24    0.23   -0.78
#  10    0.08   -0.08    0.00   -0.03   -0.02    0.00    0.00      -0.05   -0.93   -0.47
#  11    0.04   -1.74    1.22   -0.31   -0.11    0.00    0.00      -0.91   -1.19   -0.41
#  12    0.09   -1.85    1.37   -0.40   -0.11    0.00    0.00      -0.90   -1.56   -0.42
#  13    0.14   -1.79    0.67   -0.31   -0.13    0.00    0.00      -1.42   -0.95   -0.41
#  14    0.41   -2.06    0.67   -0.57   -0.18    0.00    0.00      -1.73   -1.41   -0.44
#  15    1.18   -3.88    4.63   -1.03   -0.20    0.00    0.00       0.71   -2.46   -0.47
#  16    0.85   -2.70    1.33   -0.70   -0.16    0.00    0.00      -1.38   -1.99   -0.45
#  17    0.13   -1.31    0.24   -0.73   -0.13    0.00    0.00      -1.80   -2.26   -0.41
#  18    0.34   -2.01    0.52   -1.18   -0.17    0.00    0.00      -2.51   -3.10   -0.44
#  19    1.09   -1.76    0.34   -1.71   -0.21    0.00    0.00      -2.24   -3.88   -0.47
#  20    1.52   -1.29    0.14   -0.95   -0.18    0.00    0.00      -0.75   -2.32   -0.45
#  21    3.29   -1.25    0.19   -1.23   -0.13    0.00    0.00       0.89   -3.57   -0.37
#  22   -1.73   -1.49    0.65    1.50   -0.18    0.00    0.00      -1.25    3.58   -0.42
#  23   20.43   -1.97    2.42   -9.09    0.28    0.00    0.00      12.07  -23.77    0.73
#  24  -14.07   -0.02    0.00    4.74    0.12    0.00    0.00      -9.22   21.88    0.57
#  25  -26.41   -0.20    0.14    7.70    0.19    0.00    0.00     -18.59   22.80    0.57
#  26    0.33   -0.65    0.16    0.14   -0.10    0.00    0.00      -0.12    0.59   -0.40
#  27   -0.64   -0.54    0.05    0.10   -0.09    0.00    0.00      -1.12    0.43   -0.39
#  28   11.92   -0.71    0.03   -6.21    0.84    0.00    0.00       5.87  -23.59    3.19
#  29   -0.18   -0.46    0.03    0.05   -0.09    0.00    0.00      -0.65    0.21   -0.40
#  30    0.08   -0.77    0.08    0.06   -0.20    0.00    0.00      -0.76    0.14   -0.48
#  31   15.25   -1.49    0.74   -8.96    0.36    0.00    0.00       5.90  -22.38    0.89
#  32  -11.61   -0.02    0.00    5.33    0.14    0.00    0.00      -6.15   21.39    0.57
#  33  -19.23   -0.11    0.02    8.42    0.22    0.00    0.00     -10.68   21.73    0.57
#  34    0.11   -1.03    0.19    0.22   -0.20    0.00    0.00      -0.71    0.55   -0.48
#  35   -0.55   -0.75    0.09    0.24   -0.13    0.00    0.00      -1.10    0.74   -0.42
#  36    1.15   -1.15    0.22   -0.57   -0.12    0.00    0.00      -0.47   -2.01   -0.42
#  37   -0.13   -0.01    0.00    0.03   -0.01    0.00    0.00      -0.12    1.52   -0.28
#  38   -0.22   -0.01    0.00    0.03   -0.01    0.00    0.00      -0.21    1.35   -0.28
#  39   -1.80   -0.01    0.00    0.80    0.07    0.00    0.00      -0.94    6.05    0.53
#  40   -0.08   -0.02    0.00    0.03    0.00    0.00    0.00      -0.07    1.59   -0.28
#  41   -0.44   -0.20    0.05    0.09   -0.03    0.00    0.00      -0.53    0.65   -0.20
#  42   -0.62   -0.31    0.03    2.43   -0.07    0.00    0.00       1.48    7.35   -0.21
#  43   -2.79   -1.57    4.11    2.10   -0.13    0.00    0.00       1.71    4.55   -0.28
#  44   -2.29   -0.87    1.05    0.84   -0.09    0.00    0.00      -1.35    2.36   -0.24
#  45   -0.11   -0.82    0.60    0.09   -0.09    0.00    0.00      -0.33    0.22   -0.22
#  46   -1.61   -0.62    0.32    0.66   -0.11    0.00    0.00      -1.38    1.61   -0.28
#  47   -2.40   -0.49    0.44    1.96   -0.08    0.00    0.00      -0.59    6.58   -0.28
#  48   -4.84   -0.49    0.10    4.41   -0.13    0.00    0.00      -0.94    9.22   -0.28
#  49   -5.18   -0.92    1.45    2.85   -0.10    0.00    0.00      -1.89    7.96   -0.28
#  50   -4.07   -0.22    0.07    1.36   -0.04    0.00    0.00      -2.91    8.48   -0.22
#  51   -2.41   -0.11    0.00    0.77   -0.03    0.00    0.00      -1.78    6.99   -0.28
#  52   -3.99   -0.36    0.10    1.05   -0.07    0.00    0.00      -3.28    3.98   -0.28
#  53   -1.15   -0.08    0.00    0.28   -0.02    0.00    0.00      -0.97    3.63   -0.28
#  54   -0.68   -0.11    0.00    0.33   -0.03    0.00    0.00      -0.49    3.36   -0.28
#  55   -0.81   -0.20    0.05    0.97   -0.03    0.00    0.00      -0.03    6.36   -0.21
#  56   -2.81   -0.31    0.04    2.73   -0.11    0.00    0.00      -0.46    6.99   -0.28
#  57   -3.27   -0.24    0.01    1.76   -0.09    0.00    0.00      -1.82    5.47   -0.28
#  58   -3.61   -0.35    0.07    1.90   -0.09    0.00    0.00      -2.09    5.88   -0.28
#  59   -3.69   -0.59    0.40    1.91   -0.10    0.00    0.00      -2.08    5.13   -0.28
#  60   -3.16   -0.56    0.43    1.01   -0.09    0.00    0.00      -2.36    3.11   -0.28
#  61   -1.11   -0.15    0.01    0.39   -0.04    0.00    0.00      -0.90    2.75   -0.28
#  62   -1.89   -0.20    0.04    1.33   -0.04    0.00    0.00      -0.76    8.14   -0.22

@<TRIPOS>MOLECULE
          T540292        25
   62    66     0     0     0



@<TRIPOS>ATOM
      1 F1          4.7320   -14.0028    85.8355 F          1          -0.1267
      2 C1          4.9271   -13.2999    86.9726 C.ar       1           0.1329
      3 C2          4.6753   -11.9330    86.9915 C.ar       1          -0.1533
      4 C3          4.8662   -11.2055    88.1312 C.ar       1          -0.0284
      5 C4          5.3197   -11.8368    89.2941 C.ar       1           0.0365
      6 N1          5.5968   -11.3951    90.5455 N.2        1          -0.4665
      7 C5          5.9988   -12.3972    91.2873 C.2        1           0.3108
      8 N2          6.0028   -13.5493    90.5471 N.pl3      1          -0.5904
      9 C6          5.5749   -13.2196    89.2761 C.ar       1           0.0839
     10 C7          5.3698   -13.9448    88.1105 C.ar       1          -0.1536
     11 C8          6.3905   -12.2990    92.7104 C.ar       1          -0.0125
     12 C9          6.3418   -11.0696    93.3649 C.ar       1          -0.0561
     13 C10         6.7112   -10.9856    94.7032 C.ar       1          -0.0658
     14 C11         7.1276   -12.1300    95.3824 C.ar       1          -0.0951
     15 C12         7.1742   -13.3462    94.7295 C.ar       1          -0.1097
     16 C13         6.8039   -13.4383    93.4025 C.ar       1          -0.0894
     17 C14         6.6627    -9.6800    95.4069 C.ar       1          -0.0248
     18 C15         6.4163    -9.6330    96.7776 C.ar       1          -0.0724
     19 C16         6.3728    -8.4162    97.4271 C.ar       1          -0.1042
     20 C17         6.5729    -7.2443    96.7198 C.ar       1          -0.0934
     21 C18         6.8174    -7.2850    95.3592 C.ar       1          -0.1693
     22 C19         7.0340    -6.0041    94.5953 C.3        1           0.0510
     23 N3          5.7441    -5.5052    94.1002 N.4        1          -0.5087
     24 H1          5.1286    -5.3314    94.8805 H          1           0.4318
     25 H2          5.8891    -4.6476    93.5887 H          1           0.4281
     26 C20         5.1390    -6.5080    93.2132 C.3        1          -0.0115
     27 C21         3.7956    -5.9883    92.6975 C.3        1           0.0252
     28 N4          2.8996    -5.7354    93.8338 N.3        1          -0.5338
     29 C22         2.3574    -6.9929    94.3674 C.3        1           0.0130
     30 C23         1.4790    -6.6910    95.5835 C.3        1          -0.0036
     31 N5          0.3846    -5.7950    95.1869 N.4        1          -0.5104
     32 H3         -0.1648    -6.2350    94.4639 H          1           0.4286
     33 H4         -0.2014    -5.6059    95.9863 H          1           0.4420
     34 C24         0.9413    -4.5341    94.6794 C.3        1          -0.0042
     35 C25         1.8153    -4.8181    93.4556 C.3        1           0.0253
     36 C26         6.8692    -8.4971    94.7006 C.ar       1          -0.0907
     37 H5          4.3253   -11.4415    86.0957 H          1           0.1497
     38 H6          4.6679   -10.1439    88.1345 H          1           0.1450
     39 H7          6.2585   -14.4320    90.8575 H          1           0.4262
     40 H8          5.5595   -15.0079    88.0925 H          1           0.1409
     41 H9          6.0192   -10.1856    92.8350 H          1           0.1455
     42 H10         7.4148   -12.0653    96.4215 H          1           0.1257
     43 H11         7.4978   -14.2295    95.2601 H          1           0.1372
     44 H12         6.8381   -14.3929    92.8983 H          1           0.1288
     45 H13         6.2592   -10.5473    97.3306 H          1           0.1434
     46 H14         6.1818    -8.3787    98.4894 H          1           0.1420
     47 H15         6.5376    -6.2941    97.2319 H          1           0.1330
     48 H16         7.4829    -5.2601    95.2534 H          1           0.1384
     49 H17         7.6987    -6.1918    93.7522 H          1           0.1419
     50 H18         5.8038    -6.6957    92.3701 H          1           0.1310
     51 H19         4.9824    -7.4344    93.7657 H          1           0.1464
     52 H20         3.9522    -5.0618    92.1452 H          1           0.1122
     53 H21         3.3465    -6.7323    92.0396 H          1           0.0706
     54 H22         1.7598    -7.4856    93.6004 H          1           0.0707
     55 H23         3.1780    -7.6457    94.6645 H          1           0.1232
     56 H24         1.0642    -7.6211    95.9720 H          1           0.1450
     57 H25         2.0800    -6.2107    96.3556 H          1           0.1435
     58 H26         0.1281    -3.8652    94.3976 H          1           0.1467
     59 H27         1.5452    -4.0648    95.4561 H          1           0.1440
     60 H28         2.2405    -3.8843    93.0879 H          1           0.1307
     61 H29         1.2088    -5.2748    92.6737 H          1           0.0706
     62 H30         7.0651    -8.5281    93.6390 H          1           0.1330
@<TRIPOS>BOND
     1    1    2 1
     2    2   10 ar
     3    2    3 ar
     4    3    4 ar
     5    3   37 1
     6    4    5 ar
     7    4   38 1
     8    5    9 ar
     9    5    6 1
    10    6    7 2
    11    7    8 1
    12    7   11 1
    13    8    9 1
    14    8   39 1
    15    9   10 ar
    16   10   40 1
    17   11   16 ar
    18   11   12 ar
    19   12   13 ar
    20   12   41 1
    21   13   14 ar
    22   13   17 1
    23   14   15 ar
    24   14   42 1
    25   15   16 ar
    26   15   43 1
    27   16   44 1
    28   17   36 ar
    29   17   18 ar
    30   18   19 ar
    31   18   45 1
    32   19   20 ar
    33   19   46 1
    34   20   21 ar
    35   20   47 1
    36   21   22 1
    37   21   36 ar
    38   22   23 1
    39   22   48 1
    40   22   49 1
    41   23   24 1
    42   23   25 1
    43   23   26 1
    44   26   27 1
    45   26   50 1
    46   26   51 1
    47   27   28 1
    48   27   52 1
    49   27   53 1
    50   28   35 1
    51   28   29 1
    52   29   30 1
    53   29   54 1
    54   29   55 1
    55   30   31 1
    56   30   56 1
    57   30   57 1
    58   31   32 1
    59   31   33 1
    60   31   34 1
    61   34   35 1
    62   34   58 1
    63   34   59 1
    64   35   60 1
    65   35   61 1
    66   36   62 1
##########                 Name:              T538818
##########          Protonation:                   26
##########               SMILES:   [H]/N=C/1\[NH+]=C(NC(N1OCCCOc2cc(ccc2Cl)Cl)(C)C)N
##########            Long Name:   dichlorophenoxy)propoxy]-4-imino-6,6-dimethyl-1H-1,3,5-triazin-3-ium-2-amine
##########          FlexRecCode: 1
##########               Number:                  263
##########   Ligand Source File: /raidb/db2/rgc/tcams/tcams-0001970.db2.gz
##########           GlobalRank: 240
##########                 Rank:                    1
##########               Setnum:                  249
##########             Matchnum:                 1808
##########                Cloud:                    1
##########        Electrostatic:           -40.738583
##########        Van der Waals:           -28.665611
##########  Ligand Polar Desolv:             6.873218
########## Ligand Apolar Desolv:            -3.226818
##########      Internal Energy:             0.000000
##########      Receptor Energy: 0.0
########## Receptor Desolvation:             0.000000
########## Receptor Hydrophobic:             0.000000
##########         Total Energy: -65.76
##########        Ligand Charge:             1.000000
##########            Arbitrary:    +999.9990
##########     heavy atom count:   23
##########           pose count:    1
##########        Ligand Energy:             0.000000
# num electro vdwattr vdwrepu polsolv apolsol rdesolv rhydroe totalscore fullpol fullapo
#   1    4.56   -1.21    0.25   -1.55   -0.06    0.00    0.00       1.99   -3.85   -0.16
#   2  -12.28   -0.83    0.07    3.64   -0.15    0.00    0.00      -9.55    9.28   -0.38
#   3    5.68   -1.90    0.61   -1.80   -0.09    0.00    0.00       2.49   -3.61   -0.18
#   4   28.90   -2.45    1.46   -7.05    0.57    0.00    0.00      21.43  -18.67    1.50
#   5  -22.14   -1.27    0.30    5.78   -1.28    0.00    0.00     -18.62   21.19   -4.71
#   6   24.97   -2.14    0.91   -7.56    0.31    0.00    0.00      16.49  -23.25    0.94
#   7   10.26   -0.48    0.01   -2.98    0.20    0.00    0.00       7.01  -15.49    1.02
#   8   -4.79    0.00    0.00    0.75    0.03    0.00    0.00      -4.02   13.39    0.57
#   9   -7.66   -0.61    0.04    2.23   -0.88    0.00    0.00      -6.88   11.61   -4.61
#  10    0.94   -1.61    1.07   -2.95    0.38    0.00    0.00      -2.19  -11.44    1.46
#  11    9.89   -0.71    0.02   -2.49    0.24    0.00    0.00       6.95   -9.00    0.88
#  12    1.09   -0.87    0.05   -0.70    0.16    0.00    0.00      -0.28   -1.92    0.43
#  13   -0.28   -0.72    0.05    0.25   -0.04    0.00    0.00      -0.75    0.68   -0.12
#  14    1.01   -1.64    0.64   -0.59   -0.11    0.00    0.00      -0.69   -1.31   -0.25
#  15   -0.71   -1.21    0.25    0.27   -0.04    0.00    0.00      -1.45    0.58   -0.09
#  16    2.75   -1.00    0.07   -0.87    0.30    0.00    0.00       1.25   -2.44    0.84
#  17   -1.05   -1.34    0.15    0.36   -0.12    0.00    0.00      -1.99    0.96   -0.31
#  18    1.61   -2.01    0.90   -0.77   -0.20    0.00    0.00      -0.47   -1.58   -0.42
#  19   -0.05   -2.02    0.39   -0.03   -0.17    0.00    0.00      -1.88   -0.06   -0.29
#  20    0.21   -8.18    5.97   -0.28   -0.63    0.00    0.00      -2.90   -0.43   -0.98
#  21    1.17   -1.98    0.28   -0.59   -0.26    0.00    0.00      -1.37   -1.05   -0.46
#  22    0.50   -1.74    0.38   -0.20   -0.22    0.00    0.00      -1.28   -0.42   -0.46
#  23    0.34   -1.30    0.14   -0.21   -0.11    0.00    0.00      -1.13   -0.57   -0.29
#  24    0.13   -2.60    0.99   -0.09   -0.27    0.00    0.00      -1.85   -0.31   -0.97
#  25   -3.18   -0.82    0.50    0.52   -0.12    0.00    0.00      -3.10    1.21   -0.27
#  26   -2.20   -0.21    0.02    0.71   -0.06    0.00    0.00      -1.75    3.37   -0.28
#  27   -2.09   -0.40    0.12    0.64   -0.07    0.00    0.00      -1.80    2.04   -0.22
#  28   -3.58   -0.44    0.11    0.33   -0.10    0.00    0.00      -3.69    0.88   -0.28
#  29   -2.50   -0.91    0.49    0.72   -0.15    0.00    0.00      -2.36    1.30   -0.27
#  30   -2.84   -0.99    0.78    1.23   -0.11    0.00    0.00      -1.93    3.04   -0.28
#  31  -27.75   -0.15    0.05    5.68    0.23    0.00    0.00     -21.95   14.59    0.58
#  32  -22.70   -0.12    0.02    6.28    0.24    0.00    0.00     -16.28   15.46    0.59
#  33   -8.06   -0.01    0.00    2.92    0.11    0.00    0.00      -5.04   15.18    0.59
#  34   -0.03   -0.02    0.00    1.15    0.11    0.00    0.00       1.21    6.04    0.58
#  35   -0.92   -0.15    0.01    0.29   -0.03    0.00    0.00      -0.80    2.30   -0.21
#  36   -1.38   -0.27    0.05    0.22   -0.06    0.00    0.00      -1.44    0.99   -0.28
#  37   -1.12   -0.68    0.36    0.17   -0.13    0.00    0.00      -1.40    0.36   -0.28
#  38    0.02   -1.00    0.84    0.38   -0.11    0.00    0.00       0.12    0.94   -0.28
#  39   -1.07   -0.29    0.02    0.59   -0.09    0.00    0.00      -0.84    1.71   -0.26
#  40   -0.70   -0.84    0.92    0.45   -0.10    0.00    0.00      -0.27    1.22   -0.26
#  41   -1.70   -0.52    0.40    0.81   -0.08    0.00    0.00      -1.08    2.36   -0.22
#  42   -1.67   -0.60    0.16    0.78   -0.15    0.00    0.00      -1.48    1.42   -0.28
#  43   -2.32   -0.52    0.28    0.45   -0.09    0.00    0.00      -2.21    1.33   -0.28

@<TRIPOS>MOLECULE
          T538818        26
   43    44     0     0     0



@<TRIPOS>ATOM
      1 C1          2.2284    -4.1789    94.3059 C.3        1          -0.1736
      2 C2          3.6107    -4.8170    94.4590 C.3        1           0.4065
      3 C3          4.4093    -4.1021    95.5508 C.3        1          -0.1719
      4 N1          4.3384    -4.7786    93.1798 N.pl3      1          -0.6981
      5 C4          3.9370    -5.6225    92.1772 C.cat      1           0.7437
      6 N2          4.1666    -5.2886    90.8719 N.pl3      1          -0.7847
      7 N3          3.3305    -6.7560    92.4694 N.pl3      1          -0.6211
      8 H1          3.0560    -7.3502    91.7536 H          1           0.4497
      9 C5          3.0868    -7.1007    93.7502 C.2        1           0.5896
     10 N4          2.4813    -8.2289    94.0271 N.2        1          -0.6581
     11 N5          3.4832    -6.2510    94.7709 N.pl3      1          -0.4879
     12 O1          3.7562    -6.7446    96.0697 O.3        1          -0.0674
     13 C6          5.1173    -7.1306    96.2706 C.3        1           0.0190
     14 C7          5.2070    -8.0798    97.4672 C.3        1          -0.1142
     15 C8          6.6644    -8.4930    97.6822 C.3        1           0.0630
     16 O2          7.1495    -9.1545    96.5122 O.3        1          -0.2931
     17 C9          7.5797   -10.4353    96.6609 C.ar       1           0.1504
     18 C10         8.1249   -10.8491    97.8672 C.ar       1          -0.1938
     19 C11         8.5617   -12.1525    98.0161 C.ar       1           0.0066
     20 Cl1         9.2444   -12.6713    99.5256 Cl         1          -0.0519
     21 C12         8.4549   -13.0438    96.9628 C.ar       1          -0.1309
     22 C13         7.9122   -12.6335    95.7595 C.ar       1          -0.0560
     23 C14         7.4687   -11.3327    95.6077 C.ar       1          -0.0652
     24 Cl2         6.7797   -10.8205    94.0989 Cl         1          -0.0400
     25 H2          2.3407    -3.1194    94.0758 H          1           0.1125
     26 H3          1.6886    -4.6713    93.4973 H          1           0.1017
     27 H4          1.6714    -4.2916    95.2361 H          1           0.0812
     28 H5          5.3901    -4.5679    95.6473 H          1           0.1077
     29 H6          4.5304    -3.0523    95.2841 H          1           0.0659
     30 H7          3.8766    -4.1771    96.4987 H          1           0.0983
     31 H8          5.0836    -4.1713    93.0499 H          1           0.4476
     32 H9          4.6131    -4.4549    90.6558 H          1           0.4450
     33 H10         3.8829    -5.8851    90.1615 H          1           0.4419
     34 H11         2.2061    -8.8206    93.3093 H          1           0.3660
     35 H12         5.4873    -7.6351    95.3781 H          1           0.0688
     36 H13         5.7216    -6.2441    96.4638 H          1           0.0665
     37 H14         4.8370    -7.5753    98.3597 H          1           0.0960
     38 H15         4.6027    -8.9662    97.2739 H          1           0.0947
     39 H16         7.2688    -7.6067    97.8755 H          1           0.0693
     40 H17         6.7282    -9.1693    98.5348 H          1           0.0690
     41 H18         8.2085   -10.1538    98.6893 H          1           0.1440
     42 H19         8.7963   -14.0616    97.0812 H          1           0.1489
     43 H20         7.8301   -13.3308    94.9389 H          1           0.1545
@<TRIPOS>BOND
     1    1    2 1
     2    1   25 1
     3    1   26 1
     4    1   27 1
     5    2   11 1
     6    2    3 1
     7    2    4 1
     8    3   28 1
     9    3   29 1
    10    3   30 1
    11    4    5 1
    12    4   31 1
    13    5    6 1
    14    5    7 2
    15    6   32 1
    16    6   33 1
    17    7    8 1
    18    7    9 1
    19    9   10 2
    20    9   11 1
    21   10   34 1
    22   11   12 1
    23   12   13 1
    24   13   14 1
    25   13   35 1
    26   13   36 1
    27   14   15 1
    28   14   37 1
    29   14   38 1
    30   15   16 1
    31   15   39 1
    32   15   40 1
    33   16   17 1
    34   17   23 ar
    35   17   18 ar
    36   18   19 ar
    37   18   41 1
    38   19   20 1
    39   19   21 ar
    40   21   22 ar
    41   21   42 1
    42   22   23 ar
    43   22   43 1
    44   23   24 1
##########                 Name:              T539686
##########          Protonation:                   99
##########               SMILES:   C[C@H](Cc1ccc(cc1)C(=O)OC)[NH2+]C[C@@H](c2cccc(c2)OCc3ccccc3)O
##########            Long Name:   )-2-hydroxy-ethyl]-[(1R)-2-(4-methoxycarbonylphenyl)-1-methyl-ethyl]ammonium
##########          FlexRecCode: 1
##########               Number:                   22
##########   Ligand Source File: /raidb/db2/rgc/tcams/tcams-0002064.db2.gz
##########           GlobalRank: 241
##########                 Rank:                    1
##########               Setnum:                  258
##########             Matchnum:                 1136
##########                Cloud:                    1
##########        Electrostatic:           -51.493557
##########        Van der Waals:           -20.840969
##########  Ligand Polar Desolv:             9.774893
########## Ligand Apolar Desolv:            -3.194042
##########      Internal Energy:             0.000000
##########      Receptor Energy: 0.0
########## Receptor Desolvation:             0.000000
########## Receptor Hydrophobic:             0.000000
##########         Total Energy: -65.75
##########        Ligand Charge:             1.000000
##########            Arbitrary:    +999.9990
##########     heavy atom count:   31
##########           pose count:    1
##########        Ligand Energy:             0.000000
# num electro vdwattr vdwrepu polsolv apolsol rdesolv rhydroe totalscore fullpol fullapo
#   1   -0.12   -2.10    1.10    0.06    0.02    0.00    0.00      -1.03    0.13    0.04
#   2    1.37   -1.69    0.52   -0.92    0.13    0.00    0.00      -0.59   -2.19    0.31
#   3   -1.57   -1.00    0.15    0.66   -0.05    0.00    0.00      -1.80    2.29   -0.16
#   4    1.20   -0.60    0.04   -0.07   -0.10    0.00    0.00       0.47   -0.26   -0.39
#   5    0.36   -0.64    0.05   -0.43   -0.08    0.00    0.00      -0.75   -2.07   -0.41
#   6    0.14   -0.28    0.01   -0.12   -0.05    0.00    0.00      -0.30   -1.04   -0.46
#   7    1.09   -0.25    0.00   -0.29   -0.04    0.00    0.00       0.52   -2.85   -0.38
#   8    1.59   -0.61    0.05   -0.13   -0.06    0.00    0.00       0.83   -0.68   -0.33
#   9    2.71   -0.62    0.13   -0.67   -0.05    0.00    0.00       1.50   -3.07   -0.21
#  10   -0.93   -0.98    0.39    0.57   -0.06    0.00    0.00      -1.01    2.19   -0.24
#  11    2.73   -0.28    0.01   -1.01   -0.03    0.00    0.00       1.41   -5.93   -0.19
#  12   21.62   -2.72    6.00   -4.85    0.18    0.00    0.00      20.22  -17.04    0.62
#  13  -12.36   -0.01    0.00    2.30    0.07    0.00    0.00      -9.99   17.14    0.53
#  14  -27.34   -0.30    0.33    4.70    0.13    0.00    0.00     -22.48   15.17    0.42
#  15    2.03   -1.87    1.47   -0.28   -0.14    0.00    0.00       1.21   -0.72   -0.36
#  16   -5.44   -1.47    0.42    1.87   -0.07    0.00    0.00      -4.69    3.93   -0.15
#  17   26.34   -3.69    5.52   -8.21    0.88    0.00    0.00      20.83  -15.09    1.61
#  18    2.71   -1.36    0.16   -0.52   -0.14    0.00    0.00       0.85   -1.30   -0.34
#  19    3.74   -1.85    0.34   -1.15   -0.20    0.00    0.00       0.88   -2.58   -0.44
#  20    1.45   -2.09    0.55   -0.76   -0.24    0.00    0.00      -1.08   -1.52   -0.47
#  21    2.41   -2.63    1.17   -1.25   -0.20    0.00    0.00      -0.50   -2.59   -0.42
#  22   -1.67   -1.52    0.22    0.23   -0.12    0.00    0.00      -2.86    0.59   -0.31
#  23    1.87   -1.84    0.46   -1.03    0.37    0.00    0.00      -0.17   -2.49    0.89
#  24   -1.03   -0.77    0.06    0.30   -0.04    0.00    0.00      -1.48    0.84   -0.10
#  25    0.79   -1.43    0.19   -0.25   -0.14    0.00    0.00      -0.84   -0.67   -0.39
#  26    1.03   -1.77    0.52   -0.30   -0.20    0.00    0.00      -0.71   -0.66   -0.45
#  27    1.12   -1.92    0.59   -0.41   -0.25    0.00    0.00      -0.87   -0.77   -0.47
#  28    0.77   -1.74    0.20   -0.42   -0.27    0.00    0.00      -1.45   -0.74   -0.47
#  29    0.80   -1.67    0.25   -0.40   -0.23    0.00    0.00      -1.25   -0.82   -0.47
#  30    0.36   -1.61    0.26   -0.27   -0.17    0.00    0.00      -1.44   -0.70   -0.45
#  31    2.80   -1.04    0.08   -0.86   -0.16    0.00    0.00       0.82   -2.40   -0.46
#  32    2.31   -1.51    0.49   -0.64   -0.13    0.00    0.00       0.54   -2.24   -0.45
#  33    0.24   -1.33    0.41   -0.35   -0.13    0.00    0.00      -1.17   -1.21   -0.46
#  34   -0.47   -0.91    0.84    0.85   -0.14    0.00    0.00       0.17    1.66   -0.28
#  35   -0.23   -1.15    1.83    0.07   -0.13    0.00    0.00       0.40    0.16   -0.28
#  36   -0.18   -0.49    0.14    0.12   -0.13    0.00    0.00      -0.55    0.25   -0.28
#  37   -0.29   -0.03    0.00    0.08   -0.01    0.00    0.00      -0.25    2.36   -0.27
#  38   -0.76   -0.03    0.00    0.22   -0.01    0.00    0.00      -0.58    6.74   -0.28
#  39   -2.21   -0.07    0.00    0.24   -0.02    0.00    0.00      -2.05    3.45   -0.28
#  40   -3.69   -0.42    0.23    1.16   -0.07    0.00    0.00      -2.78    4.90   -0.28
#  41   -5.48   -0.56    0.34    1.57   -0.09    0.00    0.00      -4.22    5.11   -0.28
#  42   -1.26   -0.09    0.00    0.28   -0.02    0.00    0.00      -1.08    3.31   -0.28
#  43   -0.77   -0.05    0.00    0.16   -0.01    0.00    0.00      -0.67    3.07   -0.21
#  44   -1.14   -0.07    0.00    0.13   -0.02    0.00    0.00      -1.09    2.06   -0.28
#  45   -8.30   -1.57    3.06    2.25   -0.12    0.00    0.00      -4.68    5.15   -0.28
#  46   -4.16   -0.21    0.02    1.32   -0.05    0.00    0.00      -3.08    6.10   -0.23
#  47   -5.18   -0.63    0.15    1.96   -0.14    0.00    0.00      -3.84    3.87   -0.28
#  48  -26.00   -0.28    0.23    6.93    0.56    0.00    0.00     -18.55   12.26    1.00
#  49   -3.35   -0.55    0.20    1.76   -0.09    0.00    0.00      -2.02    4.72   -0.23
#  50   -3.50   -0.59    0.29    0.97   -0.14    0.00    0.00      -2.96    1.96   -0.28
#  51   -1.03   -1.77    6.86    0.50   -0.11    0.00    0.00       4.45    1.00   -0.22
#  52   -0.75   -0.18    0.01    0.12   -0.04    0.00    0.00      -0.83    0.81   -0.26
#  53   -1.16   -0.23    0.02    0.14   -0.06    0.00    0.00      -1.30    0.62   -0.27
#  54   -1.92   -0.33    0.04    0.33   -0.10    0.00    0.00      -1.97    0.93   -0.28
#  55   -1.31   -0.48    0.20    0.46   -0.13    0.00    0.00      -1.27    0.96   -0.28
#  56   -0.80   -0.51    0.12    0.52   -0.15    0.00    0.00      -0.82    0.97   -0.28
#  57   -1.21   -0.48    0.21    0.45   -0.11    0.00    0.00      -1.14    1.13   -0.28
#  58   -0.02   -0.43    0.15    0.33   -0.07    0.00    0.00      -0.05    1.23   -0.28
#  59   -3.08   -0.17    0.01    0.43   -0.05    0.00    0.00      -2.86    2.35   -0.28
#  60   -5.62   -0.69    0.42    1.17   -0.09    0.00    0.00      -4.80    3.53   -0.28
#  61   -0.78   -0.41    0.17    0.11   -0.07    0.00    0.00      -0.97    0.43   -0.27

@<TRIPOS>MOLECULE
          T539686        99
   61    63     0     0     0



@<TRIPOS>ATOM
      1 C1          5.2573    -5.2604    82.7691 C.3        1           0.0325
      2 O1          5.5279    -5.2886    84.1721 O.3        1          -0.3489
      3 C2          5.0540    -6.3424    84.8651 C.2        1           0.4981
      4 O2          4.4281    -7.2128    84.2944 O.2        1          -0.4898
      5 C3          5.2953    -6.4387    86.3194 C.ar       1          -0.1065
      6 C4          4.8104    -7.5317    87.0399 C.ar       1          -0.0506
      7 C5          5.0393    -7.6153    88.3976 C.ar       1          -0.1536
      8 C6          5.7476    -6.6189    89.0456 C.ar       1          -0.0943
      9 C7          5.9937    -6.7171    90.5292 C.3        1          -0.1041
     10 C8          4.8474    -6.0390    91.2822 C.3        1           0.0295
     11 C9          3.6499    -6.9887    91.3508 C.3        1          -0.1841
     12 N1          5.2861    -5.7049    92.6438 N.4        1          -0.5063
     13 H1          5.2382    -6.5288    93.2243 H          1           0.4290
     14 H2          6.2363    -5.3666    92.6176 H          1           0.4262
     15 C10         4.4108    -4.6637    93.1986 C.3        1          -0.0468
     16 C11         4.8676    -4.3156    94.6168 C.3        1           0.1365
     17 O3          6.2955    -4.2894    94.6642 O.3        1          -0.5456
     18 C12         4.3520    -5.3541    95.5795 C.ar       1          -0.1008
     19 C13         3.1195    -5.1849    96.1835 C.ar       1          -0.1476
     20 C14         2.6435    -6.1358    97.0668 C.ar       1          -0.0674
     21 C15         3.3985    -7.2581    97.3483 C.ar       1          -0.1931
     22 C16         4.6351    -7.4302    96.7439 C.ar       1           0.1428
     23 O4          5.3797    -8.5334    97.0192 O.3        1          -0.3053
     24 C17         6.6428    -8.6444    96.3603 C.3        1           0.1028
     25 C18         7.3205    -9.9215    96.7855 C.ar       1          -0.1061
     26 C19         8.1509    -9.9286    97.8906 C.ar       1          -0.0943
     27 C20         8.7725   -11.1001    98.2806 C.ar       1          -0.1211
     28 C21         8.5635   -12.2646    97.5657 C.ar       1          -0.1036
     29 C22         7.7325   -12.2578    96.4611 C.ar       1          -0.1220
     30 C23         7.1074   -11.0872    96.0737 C.ar       1          -0.0952
     31 C24         5.1084    -6.4769    95.8537 C.ar       1          -0.1381
     32 C25         6.2313    -5.5329    88.3378 C.ar       1          -0.1136
     33 C26         6.0142    -5.4392    86.9786 C.ar       1          -0.0432
     34 H3          5.6935    -4.3616    82.3331 H          1           0.1098
     35 H4          5.6928    -6.1412    82.2973 H          1           0.0664
     36 H5          4.1794    -5.2567    82.6070 H          1           0.0657
     37 H6          4.2571    -8.3100    86.5352 H          1           0.1488
     38 H7          4.6645    -8.4603    88.9561 H          1           0.1337
     39 H8          6.0489    -7.7662    90.8196 H          1           0.1264
     40 H9          6.9331    -6.2220    90.7751 H          1           0.1035
     41 H10         4.5586    -5.1271    90.7596 H          1           0.1424
     42 H11         2.8332    -6.5056    91.8873 H          1           0.0851
     43 H12         3.3244    -7.2366    90.3404 H          1           0.0836
     44 H13         3.9386    -7.9006    91.8733 H          1           0.1094
     45 H14         4.4623    -3.7736    92.5715 H          1           0.1453
     46 H15         3.3842    -5.0291    93.2269 H          1           0.1412
     47 H16         4.4766    -3.3369    94.8945 H          1           0.1326
     48 H17         6.6970    -3.6424    94.0683 H          1           0.3884
     49 H18         2.5279    -4.3080    95.9649 H          1           0.1244
     50 H19         1.6809    -6.0011    97.5373 H          1           0.1346
     51 H20         3.0265    -8.0006    98.0388 H          1           0.1362
     52 H21         6.4901    -8.6560    95.2811 H          1           0.0750
     53 H22         7.2691    -7.7938    96.6295 H          1           0.0756
     54 H23         8.3142    -9.0188    98.4492 H          1           0.1244
     55 H24         9.4218   -11.1055    99.1437 H          1           0.1284
     56 H25         9.0497   -13.1797    97.8699 H          1           0.1279
     57 H26         7.5694   -13.1675    95.9023 H          1           0.1279
     58 H27         6.4552   -11.0827    95.2127 H          1           0.1233
     59 H28         6.0688    -6.6109    95.3784 H          1           0.1350
     60 H29         6.7834    -4.7586    88.8497 H          1           0.1418
     61 H30         6.3959    -4.5931    86.4265 H          1           0.1479
@<TRIPOS>BOND
     1    1    2 1
     2    1   34 1
     3    1   35 1
     4    1   36 1
     5    2    3 1
     6    3    4 2
     7    3    5 1
     8    5   33 ar
     9    5    6 ar
    10    6    7 ar
    11    6   37 1
    12    7    8 ar
    13    7   38 1
    14    8    9 1
    15    8   32 ar
    16    9   10 1
    17    9   39 1
    18    9   40 1
    19   10   11 1
    20   10   12 1
    21   10   41 1
    22   11   42 1
    23   11   43 1
    24   11   44 1
    25   12   13 1
    26   12   14 1
    27   12   15 1
    28   15   16 1
    29   15   45 1
    30   15   46 1
    31   16   17 1
    32   16   18 1
    33   16   47 1
    34   17   48 1
    35   18   31 ar
    36   18   19 ar
    37   19   20 ar
    38   19   49 1
    39   20   21 ar
    40   20   50 1
    41   21   22 ar
    42   21   51 1
    43   22   23 1
    44   22   31 ar
    45   23   24 1
    46   24   25 1
    47   24   52 1
    48   24   53 1
    49   25   30 ar
    50   25   26 ar
    51   26   27 ar
    52   26   54 1
    53   27   28 ar
    54   27   55 1
    55   28   29 ar
    56   28   56 1
    57   29   30 ar
    58   29   57 1
    59   30   58 1
    60   31   59 1
    61   32   33 ar
    62   32   60 1
    63   33   61 1
##########                 Name:              T531837
##########          Protonation:                   17
##########               SMILES:   CC1(NC(=[NH2+])NC(=[NH2+])N1OCc2ccc3ccccc3c2)C
##########            Long Name:   lidene-6,6-dimethyl-1-(2-naphthylmethoxy)-1,3,5-triazinan-2-ylidene]ammonium
##########          FlexRecCode: 1
##########               Number:                  117
##########   Ligand Source File: /raidb/db2/rgc/tcams/tcams-0000873.db2.gz
##########           GlobalRank: 242
##########                 Rank:                    1
##########               Setnum:                   38
##########             Matchnum:                   68
##########                Cloud:                    1
##########        Electrostatic:           -53.493336
##########        Van der Waals:           -22.850220
##########  Ligand Polar Desolv:            14.464709
########## Ligand Apolar Desolv:            -3.862534
##########      Internal Energy:             0.000000
##########      Receptor Energy: 0.0
########## Receptor Desolvation:             0.000000
########## Receptor Hydrophobic:             0.000000
##########         Total Energy: -65.74
##########        Ligand Charge:             2.000000
##########            Arbitrary:    +999.9990
##########     heavy atom count:   22
##########           pose count:    1
##########        Ligand Energy:             0.000000
# num electro vdwattr vdwrepu polsolv apolsol rdesolv rhydroe totalscore fullpol fullapo
#   1    3.70   -1.59    0.70   -4.35   -0.10    0.00    0.00      -1.63   -8.22   -0.18
#   2   -9.39   -0.80    0.05    7.58   -0.16    0.00    0.00      -2.71   18.08   -0.38
#   3    4.69   -2.24    1.31   -3.39   -0.08    0.00    0.00       0.30   -6.94   -0.16
#   4   19.73   -1.52    0.41  -13.58    0.64    0.00    0.00       5.67  -32.45    1.52
#   5  -17.50   -0.92    0.06   12.16   -1.46    0.00    0.00      -7.66   37.70   -4.53
#   6   16.10   -1.19    0.10  -12.01    0.34    0.00    0.00       3.34  -31.61    0.89
#   7  -13.31   -0.02    0.00    7.80    0.20    0.00    0.00      -5.34   23.73    0.60
#   8   -8.92   -0.01    0.00    4.91    0.12    0.00    0.00      -3.90   24.59    0.60
#   9   10.94   -0.59    0.02   -7.24    0.26    0.00    0.00       3.39  -31.50    1.15
#  10  -15.40   -0.62    0.02    8.52   -1.03    0.00    0.00      -8.51   36.25   -4.37
#  11   18.78   -0.97    0.11   -8.10    0.23    0.00    0.00      10.06  -31.13    0.89
#  12  -12.59   -0.02    0.00    5.01    0.12    0.00    0.00      -7.47   24.47    0.60
#  13  -16.24   -0.02    0.00    3.99    0.08    0.00    0.00     -12.19   21.87    0.45
#  14    8.99   -0.72    0.02   -5.99    0.24    0.00    0.00       2.55  -21.45    0.87
#  15    0.80   -0.78    0.09   -1.03    0.12    0.00    0.00      -0.79   -3.80    0.43
#  16   -1.12   -0.58    0.03    0.68   -0.04    0.00    0.00      -1.04    2.10   -0.13
#  17    1.76   -1.06    0.07   -0.82   -0.14    0.00    0.00      -0.20   -2.22   -0.38
#  18    1.85   -1.68    0.37   -0.89   -0.21    0.00    0.00      -0.57   -1.89   -0.45
#  19    1.37   -1.78    0.21   -1.77   -0.24    0.00    0.00      -2.20   -3.35   -0.46
#  20    0.42   -1.66    0.33   -0.70   -0.19    0.00    0.00      -1.79   -1.49   -0.40
#  21    1.33   -2.06    0.84   -0.97   -0.24    0.00    0.00      -1.10   -1.88   -0.46
#  22    0.76   -1.85    0.40   -1.04   -0.26    0.00    0.00      -1.99   -1.87   -0.47
#  23    0.69   -1.56    0.17   -1.18   -0.25    0.00    0.00      -2.13   -2.25   -0.47
#  24    0.45   -1.58    0.23   -0.65   -0.18    0.00    0.00      -1.74   -1.64   -0.46
#  25    0.42   -1.42    0.18   -0.66   -0.15    0.00    0.00      -1.62   -1.80   -0.40
#  26    0.38   -1.28    0.20   -0.69   -0.15    0.00    0.00      -1.54   -2.08   -0.44
#  27   -2.64   -1.03    2.18    1.89   -0.14    0.00    0.00       0.26    3.53   -0.27
#  28   -1.66   -0.50    0.16    1.81   -0.12    0.00    0.00      -0.31    4.27   -0.28
#  29   -1.21   -0.44    0.10    2.06   -0.10    0.00    0.00       0.40    5.12   -0.26
#  30   -3.08   -0.63    0.33    1.02   -0.10    0.00    0.00      -2.46    2.82   -0.27
#  31   -2.57   -1.46    2.44    1.14   -0.15    0.00    0.00      -0.59    2.13   -0.28
#  32   -3.29   -0.83    0.48    1.60   -0.11    0.00    0.00      -2.15    4.06   -0.28
#  33  -18.43   -0.07    0.01    7.47    0.20    0.00    0.00     -10.82   21.47    0.58
#  34   -5.36   -0.01    0.00    2.26    0.05    0.00    0.00      -3.05   26.21    0.59
#  35   -2.67   -0.17    0.01    0.84   -0.05    0.00    0.00      -2.04    4.97   -0.27
#  36   -1.79   -0.26    0.03    1.37   -0.05    0.00    0.00      -0.69    6.31   -0.22
#  37   -2.01   -0.86    2.15    2.38   -0.10    0.00    0.00       1.55    6.53   -0.28
#  38   -2.73   -0.45    0.05    1.20   -0.15    0.00    0.00      -2.08    2.28   -0.28
#  39   -2.22   -0.48    0.13    0.68   -0.13    0.00    0.00      -2.02    1.48   -0.28
#  40   -0.82   -0.45    0.07    0.52   -0.14    0.00    0.00      -0.82    1.04   -0.28
#  41   -1.23   -0.34    0.04    0.67   -0.13    0.00    0.00      -0.99    1.48   -0.28
#  42   -0.14   -0.41    0.10    0.91   -0.08    0.00    0.00       0.39    3.16   -0.28
#  43   -0.35   -0.34    0.15    1.07   -0.06    0.00    0.00       0.48    5.16   -0.28

@<TRIPOS>MOLECULE
          T531837        17
   43    45     0     0     0



@<TRIPOS>ATOM
      1 C1          2.3951    -6.5929    97.2310 C.3        1          -0.1920
      2 C2          2.2365    -5.8228    95.9184 C.3        1           0.4027
      3 C3          2.6023    -4.3516    96.1249 C.3        1          -0.1739
      4 N1          0.8517    -5.9370    95.4288 N.pl3      1          -0.7065
      5 C4          0.6053    -5.5653    94.1151 C.cat      1           0.7713
      6 N2         -0.4160    -4.8261    93.7885 N.pl3      1          -0.6673
      7 H1         -1.0310    -4.5190    94.4728 H          1           0.4684
      8 H2         -0.5619    -4.5826    92.8610 H          1           0.4603
      9 N3          1.5142    -6.0282    93.1643 N.pl3      1          -0.6712
     10 C5          2.8503    -6.0452    93.5621 C.cat      1           0.7640
     11 N4          3.8157    -5.7308    92.7461 N.pl3      1          -0.6731
     12 H3          3.6144    -5.4755    91.8322 H          1           0.4596
     13 H4          4.7359    -5.7521    93.0523 H          1           0.4602
     14 N5          3.0927    -6.4160    94.8768 N.pl3      1          -0.4879
     15 O1          4.1240    -7.3292    95.2048 O.3        1          -0.0672
     16 C6          5.3864    -6.7115    95.4640 C.3        1           0.0555
     17 C7          6.2540    -7.6552    96.2563 C.ar       1          -0.1232
     18 C8          6.9638    -7.1759    97.3558 C.ar       1          -0.1143
     19 C9          7.7565    -8.0014    98.0923 C.ar       1          -0.0857
     20 C10         7.8629    -9.3581    97.7418 C.ar       1          -0.0356
     21 C11         8.6709   -10.2411    98.4785 C.ar       1          -0.1112
     22 C12         8.7493   -11.5488    98.1097 C.ar       1          -0.0926
     23 C13         8.0393   -12.0282    97.0104 C.ar       1          -0.1015
     24 C14         7.2470   -11.2025    96.2738 C.ar       1          -0.1059
     25 C15         7.1409    -9.8457    96.6240 C.ar       1          -0.0605
     26 C16         6.3284    -8.9640    95.8908 C.ar       1          -0.0525
     27 H5          1.7577    -6.1458    97.9939 H          1           0.1129
     28 H6          2.1058    -7.6327    97.0794 H          1           0.1241
     29 H7          3.4350    -6.5486    97.5548 H          1           0.0694
     30 H8          2.4859    -3.8128    95.1847 H          1           0.1099
     31 H9          1.9450    -3.9159    96.8773 H          1           0.1011
     32 H10         3.6370    -4.2781    96.4601 H          1           0.1151
     33 H11         0.1396    -6.2600    96.0028 H          1           0.4661
     34 H12         1.2346    -6.3195    92.2825 H          1           0.4806
     35 H13         5.8758    -6.4744    94.5193 H          1           0.0980
     36 H14         5.2323    -5.7950    96.0335 H          1           0.0737
     37 H15         6.8837    -6.1336    97.6273 H          1           0.1207
     38 H16         8.3012    -7.6157    98.9414 H          1           0.1380
     39 H17         9.2271    -9.8837    99.3324 H          1           0.1364
     40 H18         9.3713   -12.2251    98.6774 H          1           0.1350
     41 H19         8.1193   -13.0705    96.7389 H          1           0.1343
     42 H20         6.7029   -11.5880    95.4242 H          1           0.1330
     43 H21         5.7691    -9.3224    95.0392 H          1           0.1320
@<TRIPOS>BOND
     1    1    2 1
     2    1   27 1
     3    1   28 1
     4    1   29 1
     5    2   14 1
     6    2    3 1
     7    2    4 1
     8    3   30 1
     9    3   31 1
    10    3   32 1
    11    4    5 1
    12    4   33 1
    13    5    6 2
    14    5    9 1
    15    6    7 1
    16    6    8 1
    17    9   10 1
    18    9   34 1
    19   10   11 2
    20   10   14 1
    21   11   12 1
    22   11   13 1
    23   14   15 1
    24   15   16 1
    25   16   17 1
    26   16   35 1
    27   16   36 1
    28   17   26 ar
    29   17   18 ar
    30   18   19 ar
    31   18   37 1
    32   19   20 ar
    33   19   38 1
    34   20   25 ar
    35   20   21 ar
    36   21   22 ar
    37   21   39 1
    38   22   23 ar
    39   22   40 1
    40   23   24 ar
    41   23   41 1
    42   24   25 ar
    43   24   42 1
    44   25   26 ar
    45   26   43 1
##########                 Name:              T525783
##########          Protonation:                   97
##########               SMILES:   c1cc(cc(c1)Oc2ccc(cc2)Cl)C[NH2+]C[C@@H](c3cccc(c3)C(F)(F)F)O
##########            Long Name:   xy)phenyl]methyl-[(2R)-2-hydroxy-2-[3-(trifluoromethyl)phenyl]ethyl]ammonium
##########          FlexRecCode: 1
##########               Number:                  186
##########   Ligand Source File: /raidb/db2/rgc/tcams/tcams-0000055.db2.gz
##########           GlobalRank: 245
##########                 Rank:                    1
##########               Setnum:                  168
##########             Matchnum:                 3023
##########                Cloud:                    1
##########        Electrostatic:           -45.832104
##########        Van der Waals:           -28.450916
##########  Ligand Polar Desolv:            11.514938
########## Ligand Apolar Desolv:            -2.944255
##########      Internal Energy:             0.000000
##########      Receptor Energy: 0.0
########## Receptor Desolvation:             0.000000
########## Receptor Hydrophobic:             0.000000
##########         Total Energy: -65.71
##########        Ligand Charge:             1.000000
##########            Arbitrary:    +999.9990
##########     heavy atom count:   29
##########           pose count:    1
##########        Ligand Energy:             0.000000
# num electro vdwattr vdwrepu polsolv apolsol rdesolv rhydroe totalscore fullpol fullapo
#   1   11.33   -0.92    0.12   -4.49    0.44    0.00    0.00       6.48  -16.39    1.61
#   2   -3.21   -0.51    0.07    0.91   -0.03    0.00    0.00      -2.77    4.24   -0.15
#   3    1.07   -0.50    0.05   -0.13   -0.09    0.00    0.00       0.40   -0.57   -0.38
#   4   19.92   -2.12    1.30   -6.45    0.26    0.00    0.00      12.90  -18.29    0.73
#   5  -24.84   -0.12    0.03    5.69    0.19    0.00    0.00     -19.05   17.20    0.57
#   6  -17.59   -0.06    0.00    6.45    0.19    0.00    0.00     -11.01   17.36    0.52
#   7   -1.49   -1.10    0.21    1.00   -0.17    0.00    0.00      -1.55    2.52   -0.42
#   8    3.54   -1.11    0.07   -0.69   -0.14    0.00    0.00       1.67   -1.88   -0.37
#   9    3.72   -1.34    0.16   -1.03   -0.18    0.00    0.00       1.32   -2.59   -0.46
#  10   -2.87   -1.59    0.41    0.29   -0.13    0.00    0.00      -3.88    0.71   -0.31
#  11    5.19   -1.64    0.65   -1.42    0.21    0.00    0.00       3.01   -3.12    0.47
#  12   -1.12   -1.46    0.18    0.37   -0.08    0.00    0.00      -2.10    0.87   -0.18
#  13    1.87   -2.04    0.36   -0.58   -0.25    0.00    0.00      -0.63   -1.08   -0.46
#  14    1.50   -1.87    0.29   -0.43   -0.25    0.00    0.00      -0.75   -0.80   -0.46
#  15    0.27   -1.60    0.34   -0.20   -0.13    0.00    0.00      -1.32   -0.47   -0.30
#  16    0.38   -3.45    1.00   -0.28   -0.55    0.00    0.00      -2.91   -0.51   -0.99
#  17    0.69   -1.34    0.15   -0.30   -0.17    0.00    0.00      -0.97   -0.84   -0.46
#  18    1.18   -1.15    0.10   -0.38   -0.16    0.00    0.00      -0.41   -1.08   -0.46
#  19    2.64   -1.82    0.31   -1.28   -0.19    0.00    0.00      -0.33   -2.95   -0.43
#  20    1.30   -1.72    0.29   -1.00   -0.22    0.00    0.00      -1.35   -2.12   -0.47
#  21    2.83   -1.12    0.07   -1.03   -0.18    0.00    0.00       0.56   -2.54   -0.45
#  22    1.53   -0.29    0.01   -0.27   -0.04    0.00    0.00       0.93   -2.37   -0.34
#  23    0.35   -0.19    0.00   -0.10   -0.03    0.00    0.00       0.02   -1.32   -0.44
#  24    0.06   -0.19    0.01   -0.19   -0.04    0.00    0.00      -0.35   -2.29   -0.47
#  25    0.01   -0.42    0.10   -0.17   -0.05    0.00    0.00      -0.53   -1.51   -0.44
#  26    0.28   -0.58    0.18   -0.36   -0.05    0.00    0.00      -0.54   -2.70   -0.37
#  27    0.42   -0.37    0.02   -0.17   -0.06    0.00    0.00      -0.15   -1.26   -0.44
#  28   -1.19   -0.57    0.23    0.65   -0.01    0.00    0.00      -0.89    3.83   -0.07
#  29    0.25   -0.47    0.14   -0.21   -0.08    0.00    0.00      -0.38   -1.12   -0.44
#  30    0.93   -0.17    0.00   -0.19   -0.07    0.00    0.00       0.50   -1.35   -0.48
#  31   -0.01   -1.35    1.25   -0.38   -0.12    0.00    0.00      -0.62   -1.52   -0.48
#  32  -13.32   -0.04    0.00    4.45    0.34    0.00    0.00      -8.57   13.15    1.00
#  33   -4.52   -0.28    0.11    0.81   -0.05    0.00    0.00      -3.93    4.48   -0.28
#  34   -2.20   -0.09    0.00    0.65   -0.03    0.00    0.00      -1.66    7.11   -0.28
#  35   -2.98   -0.10    0.00    0.64   -0.03    0.00    0.00      -2.46    6.45   -0.28
#  36   -4.99   -0.66    0.30    3.25   -0.12    0.00    0.00      -2.22    7.31   -0.28
#  37   -3.37   -0.23    0.02    1.49   -0.06    0.00    0.00      -2.15    6.51   -0.28
#  38   -5.93   -0.43    0.22    1.46   -0.09    0.00    0.00      -4.77    4.45   -0.28
#  39   -2.78   -0.60    0.16    0.86   -0.15    0.00    0.00      -2.50    1.61   -0.28
#  40   -2.86   -0.45    0.08    0.58   -0.13    0.00    0.00      -2.79    1.22   -0.28
#  41   -0.52   -0.27    0.03    0.35   -0.07    0.00    0.00      -0.48    1.42   -0.28
#  42   -1.37   -0.18    0.01    0.33   -0.05    0.00    0.00      -1.25    2.04   -0.28
#  43   -1.83   -0.48    0.11    0.24   -0.10    0.00    0.00      -2.06    0.55   -0.23
#  44   -2.31   -0.58    0.34    0.78   -0.12    0.00    0.00      -1.87    1.84   -0.28
#  45   -3.36   -0.20    0.01    1.42   -0.07    0.00    0.00      -2.20    5.68   -0.28
#  46   -0.58   -0.04    0.00    0.23   -0.01    0.00    0.00      -0.40    5.78   -0.23
#  47   -0.10   -0.02    0.00    0.07   -0.01    0.00    0.00      -0.07    2.47   -0.28
#  48   -0.03   -0.08    0.01    0.06   -0.02    0.00    0.00      -0.05    0.83   -0.25
#  49   -1.72   -0.08    0.00    0.25   -0.02    0.00    0.00      -1.57    3.41   -0.28

@<TRIPOS>MOLECULE
          T525783        97
   49    51     0     0     0



@<TRIPOS>ATOM
      1 O1          4.3221    -5.8402    89.9718 O.3        1          -0.5442
      2 C1          4.7356    -6.6013    91.1083 C.3        1           0.1360
      3 C2          3.8850    -6.2130    92.3192 C.3        1          -0.0446
      4 N1          4.0572    -4.7813    92.5997 N.4        1          -0.5051
      5 H1          5.0285    -4.5915    92.7962 H          1           0.4302
      6 H2          3.7651    -4.2438    91.7973 H          1           0.4323
      7 C3          3.2405    -4.4083    93.7624 C.3        1           0.0478
      8 C4          3.6767    -5.2110    94.9610 C.ar       1          -0.1294
      9 C5          5.0216    -5.3585    95.2404 C.ar       1          -0.1242
     10 C6          5.4226    -6.0975    96.3440 C.ar       1           0.1322
     11 O2          6.7448    -6.2438    96.6212 O.3        1          -0.2494
     12 C7          7.1937    -7.4829    96.9535 C.ar       1           0.0695
     13 C8          8.0518    -7.6448    98.0317 C.ar       1          -0.1085
     14 C9          8.5065    -8.9051    98.3680 C.ar       1          -0.0946
     15 C10         8.1068   -10.0055    97.6305 C.ar       1          -0.0265
     16 Cl1         8.6798   -11.5882    98.0552 Cl         1          -0.0467
     17 C11         7.2508    -9.8462    96.5551 C.ar       1          -0.0954
     18 C12         6.7899    -8.5883    96.2184 C.ar       1          -0.1093
     19 C13         4.4709    -6.6869    97.1644 C.ar       1          -0.1605
     20 C14         3.1276    -6.5362    96.8807 C.ar       1          -0.0724
     21 C15         2.7306    -5.7942    95.7831 C.ar       1          -0.1251
     22 C16         4.5591    -8.0700    90.8207 C.ar       1          -0.1434
     23 C17         3.5600    -8.4912    89.9627 C.ar       1          -0.0747
     24 C18         3.3980    -9.8381    89.6989 C.ar       1          -0.1085
     25 C19         4.2353   -10.7644    90.2926 C.ar       1          -0.0523
     26 C20         5.2347   -10.3434    91.1495 C.ar       1          -0.1724
     27 C21         5.3994    -8.9956    91.4100 C.ar       1          -0.0520
     28 C22         6.1470   -11.3531    91.7970 C.3        1           0.5064
     29 F1          5.7891   -12.6397    91.3803 F          1          -0.1708
     30 F2          7.4700   -11.0931    91.4235 F          1          -0.1718
     31 F3          6.0289   -11.2636    93.1881 F          1          -0.1741
     32 H3          4.4084    -4.8838    90.0863 H          1           0.3887
     33 H4          5.7849    -6.3962    91.3207 H          1           0.1356
     34 H5          2.8357    -6.4179    92.1069 H          1           0.1395
     35 H6          4.2004    -6.7935    93.1862 H          1           0.1473
     36 H7          3.3685    -3.3460    93.9705 H          1           0.1417
     37 H8          2.1912    -4.6133    93.5502 H          1           0.1414
     38 H9          5.7602    -4.8993    94.6001 H          1           0.1422
     39 H10         8.3643    -6.7862    98.6073 H          1           0.1430
     40 H11         9.1748    -9.0315    99.2069 H          1           0.1474
     41 H12         6.9399   -10.7063    95.9807 H          1           0.1471
     42 H13         6.1188    -8.4648    95.3813 H          1           0.1420
     43 H14         4.7804    -7.2629    98.0239 H          1           0.1400
     44 H15         2.3867    -6.9945    97.5188 H          1           0.1411
     45 H16         1.6796    -5.6740    95.5653 H          1           0.1353
     46 H17         2.9059    -7.7675    89.4990 H          1           0.1341
     47 H18         2.6171   -10.1671    89.0292 H          1           0.1462
     48 H19         4.1084   -11.8169    90.0869 H          1           0.1488
     49 H20         6.1826    -8.6664    92.0768 H          1           0.1400
@<TRIPOS>BOND
     1    1    2 1
     2    1   32 1
     3    2    3 1
     4    2   22 1
     5    2   33 1
     6    3    4 1
     7    3   34 1
     8    3   35 1
     9    4    5 1
    10    4    6 1
    11    4    7 1
    12    7    8 1
    13    7   36 1
    14    7   37 1
    15    8   21 ar
    16    8    9 ar
    17    9   10 ar
    18    9   38 1
    19   10   11 1
    20   10   19 ar
    21   11   12 1
    22   12   18 ar
    23   12   13 ar
    24   13   14 ar
    25   13   39 1
    26   14   15 ar
    27   14   40 1
    28   15   16 1
    29   15   17 ar
    30   17   18 ar
    31   17   41 1
    32   18   42 1
    33   19   20 ar
    34   19   43 1
    35   20   21 ar
    36   20   44 1
    37   21   45 1
    38   22   27 ar
    39   22   23 ar
    40   23   24 ar
    41   23   46 1
    42   24   25 ar
    43   24   47 1
    44   25   26 ar
    45   25   48 1
    46   26   27 ar
    47   26   28 1
    48   27   49 1
    49   28   29 1
    50   28   30 1
    51   28   31 1
##########                 Name:              T529102
##########          Protonation:                   69
##########               SMILES:   CCC[C@H](C)Nc1[nH+]c(cc(n1)NCCC(=O)Nc2ccccc2)C
##########            Long Name:   -[[(1S)-1-methylbutyl]amino]pyrimidin-1-ium-4-yl]amino]-N-phenyl-propanamide
##########          FlexRecCode: 1
##########               Number:                   28
##########   Ligand Source File: /raidb/db2/rgc/tcams/tcams-0000497.db2.gz
##########           GlobalRank: 245
##########                 Rank:                    1
##########               Setnum:                  156
##########             Matchnum:                 4094
##########                Cloud:                    1
##########        Electrostatic:           -31.229893
##########        Van der Waals:           -37.346767
##########  Ligand Polar Desolv:             8.053985
########## Ligand Apolar Desolv:            -5.182427
##########      Internal Energy:             0.000000
##########      Receptor Energy: 0.0
########## Receptor Desolvation:             0.000000
########## Receptor Hydrophobic:             0.000000
##########         Total Energy: -65.71
##########        Ligand Charge:             1.000000
##########            Arbitrary:    +999.9990
##########     heavy atom count:   25
##########           pose count:    1
##########        Ligand Energy:             0.000000
# num electro vdwattr vdwrepu polsolv apolsol rdesolv rhydroe totalscore fullpol fullapo
#   1    1.19   -1.22    0.16   -1.20   -0.11    0.00    0.00      -1.18   -2.07   -0.19
#   2    1.21   -1.39    0.69   -0.94   -0.12    0.00    0.00      -0.54   -1.90   -0.25
#   3    1.57   -1.12    0.26   -0.96   -0.09    0.00    0.00      -0.35   -2.25   -0.21
#   4   -1.90   -1.36    0.44    1.37   -0.11    0.00    0.00      -1.56    2.97   -0.23
#   5    3.47   -1.59    0.27   -2.08   -0.11    0.00    0.00      -0.04   -3.57   -0.19
#   6    7.98   -1.25    0.09   -5.38    0.53    0.00    0.00       1.98  -13.68    1.35
#   7  -10.70   -1.09    0.08    5.05   -1.82    0.00    0.00      -8.48   13.26   -4.78
#   8   13.67   -1.71    0.34   -5.60    0.41    0.00    0.00       7.10  -12.75    0.94
#   9  -10.30   -0.04    0.00    4.96    0.17    0.00    0.00      -5.21   11.82    0.41
#  10   -8.03   -2.11    0.57    3.01   -0.36    0.00    0.00      -6.92    6.20   -0.75
#  11    5.97   -3.14    1.72   -2.11   -0.13    0.00    0.00       2.31   -3.45   -0.21
#  12    8.70   -1.42    0.18   -2.58   -0.17    0.00    0.00       4.71   -6.23   -0.41
#  13  -10.52   -0.87    0.04    2.94   -0.67    0.00    0.00      -9.08    9.30   -2.11
#  14   11.68   -0.76    0.03   -3.76    0.51    0.00    0.00       7.70  -12.72    1.72
#  15   -2.76   -0.57    0.02    0.76   -0.10    0.00    0.00      -2.64    2.42   -0.32
#  16    3.48   -0.56    0.03   -0.75   -0.07    0.00    0.00       2.13   -2.41   -0.24
#  17  -11.27   -1.13    0.09    2.25   -0.24    0.00    0.00     -10.30    6.09   -0.64
#  18    7.61   -1.68    0.62   -1.61    0.11    0.00    0.00       5.05   -4.46    0.31
#  19   17.07   -1.66    0.20   -3.46    0.75    0.00    0.00      12.90   -7.58    1.65
#  20   -3.11   -1.83    0.21    0.50   -0.38    0.00    0.00      -4.61    0.89   -0.68
#  21    3.38   -2.09    0.25   -0.76   -0.30    0.00    0.00       0.48   -1.17   -0.46
#  22    2.38   -2.98    0.72   -0.54   -0.32    0.00    0.00      -0.75   -0.79   -0.47
#  23    2.93   -4.33    1.56   -0.59   -0.32    0.00    0.00      -0.75   -0.87   -0.47
#  24    2.36   -4.66    1.91   -0.40   -0.30    0.00    0.00      -1.10   -0.62   -0.47
#  25    2.74   -3.24    1.12   -0.43   -0.22    0.00    0.00      -0.03   -0.77   -0.40
#  26    7.45   -1.05    0.09   -3.85    0.70    0.00    0.00       3.34  -11.33    2.07
#  27   -0.41   -0.56    0.15    0.30   -0.16    0.00    0.00      -0.67    0.54   -0.28
#  28   -0.49   -0.26    0.01    0.21   -0.11    0.00    0.00      -0.64    0.53   -0.28
#  29   -0.44   -0.45    0.10    0.13   -0.13    0.00    0.00      -0.79    0.29   -0.28
#  30   -0.35   -0.64    0.50    0.39   -0.09    0.00    0.00      -0.19    1.20   -0.28
#  31   -0.79   -0.70    0.90    0.45   -0.11    0.00    0.00      -0.24    1.10   -0.26
#  32   -1.10   -0.44    0.14    0.46   -0.10    0.00    0.00      -1.04    1.25   -0.28
#  33   -1.03   -0.34    0.12    0.36   -0.06    0.00    0.00      -0.95    1.66   -0.28
#  34   -1.57   -1.20    2.03    1.18   -0.08    0.00    0.00       0.35    3.27   -0.22
#  35   -1.43   -0.61    0.22    0.45   -0.15    0.00    0.00      -1.52    0.83   -0.28
#  36   -1.82   -0.54    0.15    0.89   -0.14    0.00    0.00      -1.47    1.73   -0.28
#  37   -1.27   -0.72    0.34    0.88   -0.15    0.00    0.00      -0.91    1.63   -0.27
#  38   -2.97   -0.02    0.00    2.29    0.15    0.00    0.00      -0.55    8.59    0.58
#  39   -5.68   -1.20    0.86    1.92   -0.17    0.00    0.00      -4.26    3.17   -0.28
#  40   -3.87   -1.28    1.05    1.84   -0.19    0.00    0.00      -2.45    2.79   -0.28
#  41   -4.89   -1.43    1.56    2.02   -0.18    0.00    0.00      -2.91    3.21   -0.28
#  42   -6.79   -0.32    0.03    1.44   -0.08    0.00    0.00      -5.73    4.07   -0.24
#  43   -4.90   -0.01    0.00    1.45    0.10    0.00    0.00      -3.36    8.58    0.58
#  44   -2.58   -0.30    0.04    0.41   -0.07    0.00    0.00      -2.51    1.48   -0.27
#  45   -2.43   -0.16    0.01    0.27   -0.05    0.00    0.00      -2.36    1.55   -0.27
#  46   -1.74   -0.11    0.00    0.37   -0.03    0.00    0.00      -1.51    3.24   -0.28
#  47   -3.37   -0.30    0.10    0.78   -0.07    0.00    0.00      -2.87    3.17   -0.28
#  48  -12.78   -0.04    0.00    2.71    0.23    0.00    0.00      -9.87    6.81    0.59
#  49   -3.08   -0.53    0.12    0.93   -0.14    0.00    0.00      -2.71    1.83   -0.28
#  50   -3.08   -0.92    0.72    0.76   -0.17    0.00    0.00      -2.70    1.27   -0.28
#  51   -2.93   -1.30    0.65    0.61   -0.19    0.00    0.00      -3.17    0.89   -0.28
#  52   -2.89   -1.85    2.49    0.50   -0.19    0.00    0.00      -1.93    0.74   -0.28
#  53   -2.79   -1.05    0.81    0.22   -0.11    0.00    0.00      -2.92    0.46   -0.22

@<TRIPOS>MOLECULE
          T529102        69
   53    54     0     0     0



@<TRIPOS>ATOM
      1 C1          8.9093   -12.0080    98.0173 C.3        1          -0.1579
      2 C2          8.2595   -10.6259    98.1098 C.3        1          -0.1281
      3 C3          8.9631    -9.6660    97.1483 C.3        1          -0.1300
      4 C4          8.3132    -8.2841    97.2407 C.3        1           0.1235
      5 C5          8.4389    -7.7561    98.6712 C.3        1          -0.1802
      6 N1          6.8969    -8.3852    96.8801 N.pl3      1          -0.6679
      7 C6          6.2538    -7.3096    96.2929 C.ar       1           0.6616
      8 N2          6.9361    -6.1981    96.0593 N.ar       1          -0.5762
      9 H1          7.8740    -6.1528    96.3022 H          1           0.4372
     10 C7          6.3554    -5.1479    95.4980 C.ar       1           0.2440
     11 C8          7.1440    -3.8904    95.2372 C.3        1          -0.1411
     12 C9          5.0195    -5.2179    95.1540 C.ar       1          -0.2771
     13 C10         4.3262    -6.4021    95.4128 C.ar       1           0.5227
     14 N3          2.9854    -6.5176    95.0842 N.pl3      1          -0.6634
     15 C11         2.2844    -5.3924    94.4605 C.3        1           0.1194
     16 C12         0.8267    -5.7794    94.2030 C.3        1          -0.1574
     17 C13         0.1056    -4.6220    93.5614 C.2        1           0.5205
     18 O1          0.4859    -4.1864    92.4952 O.2        1          -0.5180
     19 N4         -0.9619    -4.0709    94.1725 N.am       1          -0.6669
     20 C14        -1.6314    -2.9963    93.5767 C.ar       1           0.1297
     21 C15        -2.9898    -2.8132    93.7993 C.ar       1          -0.1403
     22 C16        -3.6478    -1.7515    93.2098 C.ar       1          -0.1005
     23 C17        -2.9553    -0.8714    92.3988 C.ar       1          -0.1262
     24 C18        -1.6026    -1.0511    92.1748 C.ar       1          -0.1027
     25 C19        -0.9376    -2.1073    92.7663 C.ar       1          -0.1189
     26 N5          4.9732    -7.4189    95.9736 N.ar       1          -0.5800
     27 H2          8.4081   -12.6917    98.7023 H          1           0.0600
     28 H3          8.8197   -12.3841    96.9983 H          1           0.0586
     29 H4          9.9631   -11.9327    98.2855 H          1           0.0605
     30 H5          7.2057   -10.7012    97.8415 H          1           0.0642
     31 H6          8.3489   -10.2497    99.1289 H          1           0.0616
     32 H7         10.0169    -9.5908    97.4165 H          1           0.0839
     33 H8          8.8737   -10.0422    96.1291 H          1           0.0987
     34 H9          8.8146    -7.6004    96.5556 H          1           0.0880
     35 H10         7.9759    -6.7715    98.7370 H          1           0.0792
     36 H11         7.9378    -8.4399    99.3562 H          1           0.0911
     37 H12         9.4928    -7.6807    98.9393 H          1           0.0568
     38 H13         6.4099    -9.2061    97.0529 H          1           0.4399
     39 H14         6.4972    -3.1454    94.7740 H          1           0.1182
     40 H15         7.5296    -3.5014    96.1796 H          1           0.1197
     41 H16         7.9758    -4.1151    94.5695 H          1           0.0985
     42 H17         4.5223    -4.3757    94.6957 H          1           0.1843
     43 H18         2.5105    -7.3435    95.2672 H          1           0.4246
     44 H19         2.3192    -4.5292    95.1252 H          1           0.0983
     45 H20         2.7666    -5.1429    93.5153 H          1           0.0983
     46 H21         0.7919    -6.6425    93.5383 H          1           0.1133
     47 H22         0.3445    -6.0289    95.1482 H          1           0.1136
     48 H23        -1.2659    -4.4191    95.0251 H          1           0.4140
     49 H24        -3.5314    -3.5004    94.4324 H          1           0.1263
     50 H25        -4.7043    -1.6087    93.3822 H          1           0.1298
     51 H26        -3.4722    -0.0420    91.9391 H          1           0.1271
     52 H27        -1.0645    -0.3622    91.5405 H          1           0.1282
     53 H28         0.1200    -2.2442    92.5952 H          1           0.1375
@<TRIPOS>BOND
     1    1    2 1
     2    1   27 1
     3    1   28 1
     4    1   29 1
     5    2    3 1
     6    2   30 1
     7    2   31 1
     8    3    4 1
     9    3   32 1
    10    3   33 1
    11    4    5 1
    12    4    6 1
    13    4   34 1
    14    5   35 1
    15    5   36 1
    16    5   37 1
    17    6    7 1
    18    6   38 1
    19    7   26 ar
    20    7    8 ar
    21    8    9 1
    22    8   10 ar
    23   10   11 1
    24   10   12 ar
    25   11   39 1
    26   11   40 1
    27   11   41 1
    28   12   13 ar
    29   12   42 1
    30   13   14 1
    31   13   26 ar
    32   14   15 1
    33   14   43 1
    34   15   16 1
    35   15   44 1
    36   15   45 1
    37   16   17 1
    38   16   46 1
    39   16   47 1
    40   17   18 2
    41   17   19 am
    42   19   20 1
    43   19   48 1
    44   20   25 ar
    45   20   21 ar
    46   21   22 ar
    47   21   49 1
    48   22   23 ar
    49   22   50 1
    50   23   24 ar
    51   23   51 1
    52   24   25 ar
    53   24   52 1
    54   25   53 1
##########                 Name:              T529189
##########          Protonation:                   71
##########               SMILES:   c1ccc2c(c1)[nH]c(=[NH+]CCC[NH2+]Cc3c(c4ccc(cc4[nH]3)Cl)Cl)[nH]2
##########            Long Name:   dol-2-yl)methyl-[3-(1,3-dihydrobenzimidazol-2-ylideneammonio)propyl]ammonium
##########          FlexRecCode: 1
##########               Number:                  117
##########   Ligand Source File: /raidb/db2/rgc/tcams/tcams-0000590.db2.gz
##########           GlobalRank: 245
##########                 Rank:                    1
##########               Setnum:                   74
##########             Matchnum:                 2651
##########                Cloud:                    1
##########        Electrostatic:           -44.941074
##########        Van der Waals:           -29.266607
##########  Ligand Polar Desolv:            12.822762
########## Ligand Apolar Desolv:            -4.321239
##########      Internal Energy:             0.000000
##########      Receptor Energy: 0.0
########## Receptor Desolvation:             0.000000
########## Receptor Hydrophobic:             0.000000
##########         Total Energy: -65.71
##########        Ligand Charge:             2.000000
##########            Arbitrary:    +999.9990
##########     heavy atom count:   26
##########           pose count:    1
##########        Ligand Energy:             0.000000
# num electro vdwattr vdwrepu polsolv apolsol rdesolv rhydroe totalscore fullpol fullapo
#   1    0.08   -0.68    0.03   -0.11   -0.15    0.00    0.00      -0.82   -0.71   -0.99
#   2    0.56   -0.88    0.13   -1.04   -0.07    0.00    0.00      -1.31   -4.46   -0.32
#   3    0.04   -1.32    0.30    1.36   -0.19    0.00    0.00       0.19    5.05   -0.71
#   4   -2.08   -0.98    0.37    0.98   -0.11    0.00    0.00      -1.82    3.72   -0.43
#   5   17.39   -1.54    1.15   -6.49    0.19    0.00    0.00      10.71  -24.84    0.73
#   6  -21.67   -0.09    0.01    6.30    0.17    0.00    0.00     -15.29   21.56    0.57
#   7   -9.41   -0.01    0.00    2.57    0.06    0.00    0.00      -6.78   23.90    0.57
#   8    0.21   -0.84    0.37    0.01   -0.10    0.00    0.00      -0.35    0.05   -0.40
#   9    4.09   -0.49    0.05   -1.89   -0.05    0.00    0.00       1.71   -8.44   -0.24
#  10   -1.64   -0.50    0.03    0.75   -0.10    0.00    0.00      -1.46    2.97   -0.41
#  11    3.53   -1.41    0.65   -6.97    0.43    0.00    0.00      -3.77  -26.52    1.64
#  12    0.08   -0.03    0.00    4.11    0.11    0.00    0.00       4.27   21.11    0.57
#  13   -3.57   -1.44    0.43    8.62   -1.57    0.00    0.00       2.46   27.13   -4.95
#  14    6.20   -1.18    0.08   -7.75    0.43    0.00    0.00      -2.23  -21.09    1.16
#  15   -0.76   -1.48    0.22    1.04   -0.30    0.00    0.00      -1.28    2.64   -0.77
#  16    1.18   -1.93    0.53   -1.36   -0.24    0.00    0.00      -1.82   -2.67   -0.48
#  17    0.89   -2.27    0.89   -1.78   -0.25    0.00    0.00      -2.52   -3.29   -0.47
#  18    0.59   -1.86    0.33   -1.83   -0.27    0.00    0.00      -3.04   -3.22   -0.47
#  19    0.59   -1.47    0.15   -1.53   -0.25    0.00    0.00      -2.50   -2.96   -0.48
#  20   -0.46   -1.41    0.17    0.86   -0.30    0.00    0.00      -1.14    2.24   -0.77
#  21    1.20   -1.84    0.56   -7.15    0.42    0.00    0.00      -6.81  -20.77    1.21
#  22   17.62   -1.93    0.58   -5.99    0.39    0.00    0.00      10.67  -17.13    1.12
#  23   -2.73   -2.29    1.61    0.90   -0.29    0.00    0.00      -2.81    2.39   -0.78
#  24    3.00   -2.63    1.20   -0.97   -0.21    0.00    0.00       0.39   -2.12   -0.46
#  25   -0.10   -2.56    1.01   -0.49   -0.15    0.00    0.00      -2.29   -1.02   -0.30
#  26    0.35   -5.89    4.73   -1.04   -0.67    0.00    0.00      -2.51   -1.54   -0.99
#  27    0.47   -2.20    0.67   -1.13   -0.20    0.00    0.00      -2.39   -2.51   -0.45
#  28    0.14   -1.90    0.96   -0.47   -0.16    0.00    0.00      -1.42   -1.39   -0.47
#  29    0.52   -1.61    0.68   -0.82   -0.13    0.00    0.00      -1.36   -2.82   -0.44
#  30   -2.99   -0.09    0.00    1.19   -0.03    0.00    0.00      -1.92   11.32   -0.28
#  31   -6.17   -0.70    0.60    2.74   -0.09    0.00    0.00      -3.63    8.66   -0.28
#  32   -2.74   -0.11    0.01    1.16   -0.03    0.00    0.00      -1.71   10.18   -0.28
#  33   -5.98   -0.61    0.83    2.37   -0.08    0.00    0.00      -3.47    8.84   -0.28
#  34   -3.69   -0.22    0.04    1.02   -0.05    0.00    0.00      -2.90    5.67   -0.28
#  35   -1.70   -0.09    0.00    0.51   -0.02    0.00    0.00      -1.30    6.37   -0.28
#  36   -2.39   -0.15    0.01    1.09   -0.05    0.00    0.00      -1.49    6.76   -0.28
#  37   -1.46   -0.15    0.01    0.90   -0.04    0.00    0.00      -0.74    6.37   -0.28
#  38   -6.66   -0.02    0.00    4.01    0.12    0.00    0.00      -2.55   19.68    0.57
#  39   -2.81   -0.38    0.04    2.39   -0.14    0.00    0.00      -0.90    4.89   -0.28
#  40   -2.25   -0.74    0.87    1.44   -0.15    0.00    0.00      -0.84    2.76   -0.28
#  41   -0.78   -0.50    0.09    1.30   -0.15    0.00    0.00      -0.04    2.45   -0.28
#  42   -1.29   -0.30    0.03    1.53   -0.11    0.00    0.00      -0.14    3.83   -0.28
#  43    0.45   -0.04    0.00    4.72    0.16    0.00    0.00       5.29   17.44    0.59
#  44  -15.10   -0.03    0.00    5.54    0.20    0.00    0.00      -9.39   16.75    0.59
#  45   -4.83   -0.50    0.12    1.30   -0.12    0.00    0.00      -4.02    3.08   -0.28
#  46   -0.50   -0.45    0.12    0.51   -0.12    0.00    0.00      -0.45    1.21   -0.28
#  47   -0.35   -0.26    0.07    0.44   -0.05    0.00    0.00      -0.15    2.37   -0.28

@<TRIPOS>MOLECULE
          T529189        71
   47    50     0     0     0



@<TRIPOS>ATOM
      1 Cl1         4.1740    -7.0255    88.6735 Cl         1          -0.0142
      2 C1          5.5301    -6.0497    88.2016 C.2        1          -0.0577
      3 C2          6.6418    -5.8261    88.9204 C.2        1          -0.0014
      4 C3          6.9156    -6.3927    90.2897 C.3        1           0.0684
      5 N1          5.7172    -6.2506    91.1271 N.4        1          -0.5118
      6 H1          5.4780    -5.2737    91.2090 H          1           0.4326
      7 H2          4.9498    -6.7504    90.7036 H          1           0.4323
      8 C4          5.9840    -6.8028    92.4619 C.3        1          -0.0068
      9 C5          4.7358    -6.6547    93.3341 C.3        1          -0.1690
     10 C6          5.0138    -7.2300    94.7243 C.3        1           0.0997
     11 N2          5.3610    -8.6482    94.6055 N.pl3      1          -0.6565
     12 H3          4.9913    -9.1792    93.8828 H          1           0.4445
     13 C7          6.1685    -9.1979    95.4728 C.cat      1           0.6648
     14 N3          6.7504    -8.5596    96.5386 N.pl3      1          -0.5779
     15 C8          7.5398    -9.4842    97.2214 C.ar       1           0.0769
     16 C9          8.3387    -9.3873    98.3516 C.ar       1          -0.0848
     17 C10         9.0216   -10.4972    98.8093 C.ar       1          -0.0740
     18 C11         8.9125   -11.7063    98.1447 C.ar       1          -0.0734
     19 C12         8.1200   -11.8122    97.0184 C.ar       1          -0.0835
     20 C13         7.4295   -10.7031    96.5516 C.ar       1           0.0801
     21 N4          6.5696   -10.5098    95.4712 N.pl3      1          -0.5767
     22 N5          7.4909    -5.0070    88.2235 N.pl3      1          -0.5712
     23 C14         6.9306    -4.6764    87.0099 C.ar       1           0.1410
     24 C15         7.3549    -3.8927    85.9416 C.ar       1          -0.1266
     25 C16         6.5469    -3.7507    84.8336 C.ar       1           0.0153
     26 Cl2         7.0788    -2.7728    83.5015 Cl         1          -0.0320
     27 C17         5.3115    -4.3832    84.7726 C.ar       1          -0.1201
     28 C18         4.8763    -5.1572    85.8109 C.ar       1          -0.0412
     29 C19         5.6812    -5.3188    86.9403 C.ar       1          -0.1117
     30 H4          7.1740    -7.4479    90.2013 H          1           0.1516
     31 H5          7.7447    -5.8527    90.7472 H          1           0.1597
     32 H6          6.2424    -7.8581    92.3735 H          1           0.1447
     33 H7          6.8130    -6.2629    92.9194 H          1           0.1456
     34 H8          4.4774    -5.5995    93.4224 H          1           0.1103
     35 H9          3.9068    -7.1947    92.8766 H          1           0.1094
     36 H10         5.8427    -6.6901    95.1818 H          1           0.1065
     37 H11         4.1244    -7.1245    95.3457 H          1           0.1071
     38 H12         6.6335    -7.6263    96.7758 H          1           0.4541
     39 H13         8.4267    -8.4454    98.8724 H          1           0.1503
     40 H14         9.6432   -10.4213    99.6892 H          1           0.1576
     41 H15         9.4495   -12.5701    98.5079 H          1           0.1579
     42 H16         8.0380   -12.7572    96.5019 H          1           0.1516
     43 H17         6.3029   -11.1854    94.8283 H          1           0.4586
     44 H18         8.3571    -4.7046    88.5381 H          1           0.4290
     45 H19         8.3136    -3.3970    85.9801 H          1           0.1454
     46 H20         4.6899    -4.2618    83.8976 H          1           0.1506
     47 H21         3.9144    -5.6454    85.7566 H          1           0.1453
@<TRIPOS>BOND
     1    1    2 1
     2    2   29 1
     3    2    3 2
     4    3    4 1
     5    3   22 1
     6    4    5 1
     7    4   30 1
     8    4   31 1
     9    5    6 1
    10    5    7 1
    11    5    8 1
    12    8    9 1
    13    8   32 1
    14    8   33 1
    15    9   10 1
    16    9   34 1
    17    9   35 1
    18   10   11 1
    19   10   36 1
    20   10   37 1
    21   11   12 1
    22   11   13 2
    23   13   21 1
    24   13   14 1
    25   14   15 1
    26   14   38 1
    27   15   20 ar
    28   15   16 ar
    29   16   17 ar
    30   16   39 1
    31   17   18 ar
    32   17   40 1
    33   18   19 ar
    34   18   41 1
    35   19   20 ar
    36   19   42 1
    37   20   21 1
    38   21   43 1
    39   22   23 1
    40   22   44 1
    41   23   29 ar
    42   23   24 ar
    43   24   25 ar
    44   24   45 1
    45   25   26 1
    46   25   27 ar
    47   27   28 ar
    48   27   46 1
    49   28   29 ar
    50   28   47 1
##########                 Name:              T530425
##########          Protonation:                  100
##########               SMILES:   CC(C)(CCc1ccc(cc1)OC)[NH2+]C[C@@H](c2cccc(c2)C(F)(F)F)O
##########            Long Name:   fluoromethyl)phenyl]ethyl]-[3-(4-methoxyphenyl)-1,1-dimethyl-propyl]ammonium
##########          FlexRecCode: 1
##########               Number:                   76
##########   Ligand Source File: /raidb/db2/rgc/tcams/tcams-0000874.db2.gz
##########           GlobalRank: 247
##########                 Rank:                    1
##########               Setnum:                  289
##########             Matchnum:                 4746
##########                Cloud:                    1
##########        Electrostatic:           -52.875744
##########        Van der Waals:           -22.285555
##########  Ligand Polar Desolv:            11.030929
########## Ligand Apolar Desolv:            -1.562933
##########      Internal Energy:             0.000000
##########      Receptor Energy: 0.0
########## Receptor Desolvation:             0.000000
########## Receptor Hydrophobic:             0.000000
##########         Total Energy: -65.69
##########        Ligand Charge:             1.000000
##########            Arbitrary:    +999.9990
##########     heavy atom count:   27
##########           pose count:    1
##########        Ligand Energy:             0.000000
# num electro vdwattr vdwrepu polsolv apolsol rdesolv rhydroe totalscore fullpol fullapo
#   1   -0.17   -0.95    0.09    0.07    0.02    0.00    0.00      -0.95    0.13    0.03
#   2    2.67   -1.49    0.40   -0.67    0.43    0.00    0.00       1.32   -1.47    0.93
#   3   -1.35   -1.40    0.18    0.06   -0.12    0.00    0.00      -2.63    0.16   -0.31
#   4    2.93   -1.57    0.17   -1.07   -0.21    0.00    0.00       0.25   -2.17   -0.42
#   5    1.21   -1.58    0.29   -0.52   -0.20    0.00    0.00      -0.81   -1.17   -0.45
#   6    2.64   -1.14    0.11   -0.58   -0.13    0.00    0.00       0.90   -1.61   -0.36
#   7    2.03   -0.86    0.12   -0.67   -0.08    0.00    0.00       0.54   -1.71   -0.20
#   8    3.36   -0.63    0.03   -1.18   -0.06    0.00    0.00       1.53   -3.57   -0.19
#   9   -1.90   -1.01    0.12    1.54   -0.03    0.00    0.00      -1.27    3.67   -0.06
#  10    4.92   -0.96    0.12   -2.23   -0.06    0.00    0.00       1.79   -5.76   -0.15
#  11    7.15   -2.42    0.78   -3.27   -0.08    0.00    0.00       2.16   -5.85   -0.15
#  12   22.37   -2.67    3.18   -6.26    0.20    0.00    0.00      16.82  -16.56    0.54
#  13  -24.40   -0.11    0.01    7.15    0.22    0.00    0.00     -17.12   16.69    0.52
#  14  -23.18   -0.10    0.03    4.59    0.15    0.00    0.00     -18.52   16.80    0.56
#  15    1.38   -0.68    0.09   -0.28   -0.09    0.00    0.00       0.41   -1.06   -0.33
#  16   -3.32   -0.81    0.16    1.22   -0.04    0.00    0.00      -2.81    4.32   -0.15
#  17   18.31   -4.10    3.84   -6.41    0.66    0.00    0.00      12.29  -15.73    1.61
#  18    1.22   -0.50    0.03   -0.44   -0.06    0.00    0.00       0.26   -2.33   -0.34
#  19    0.40   -0.25    0.00   -0.13   -0.04    0.00    0.00      -0.01   -1.30   -0.44
#  20    0.16   -0.18    0.00   -0.17   -0.04    0.00    0.00      -0.22   -2.21   -0.47
#  21    0.07   -0.18    0.00   -0.10   -0.03    0.00    0.00      -0.24   -1.45   -0.44
#  22    0.25   -0.37    0.01   -0.38   -0.05    0.00    0.00      -0.53   -2.62   -0.37
#  23    0.12   -0.78    0.15   -0.26   -0.09    0.00    0.00      -0.87   -1.20   -0.44
#  24   -0.57   -0.39    0.02    0.92   -0.02    0.00    0.00      -0.04    3.75   -0.07
#  25    0.17   -0.22    0.01   -0.20   -0.08    0.00    0.00      -0.32   -1.10   -0.44
#  26    0.14   -0.53    0.03   -0.49   -0.18    0.00    0.00      -1.03   -1.32   -0.48
#  27    0.21   -0.60    0.08   -0.43   -0.14    0.00    0.00      -0.88   -1.48   -0.48
#  28    0.90   -1.09    0.15   -0.32   -0.14    0.00    0.00      -0.49   -1.05   -0.45
#  29    1.19   -1.20    0.15   -0.52   -0.15    0.00    0.00      -0.52   -1.60   -0.46
#  30   -0.42   -0.33    0.03    0.31   -0.12    0.00    0.00      -0.53    0.68   -0.27
#  31   -0.19   -0.40    0.07    0.20   -0.09    0.00    0.00      -0.41    0.54   -0.26
#  32   -0.94   -0.20    0.01    0.18   -0.06    0.00    0.00      -1.00    0.89   -0.28
#  33   -2.26   -0.38    0.04    0.60   -0.10    0.00    0.00      -2.10    1.27   -0.22
#  34   -2.08   -0.76    1.53    1.08   -0.10    0.00    0.00      -0.33    3.01   -0.28
#  35   -2.84   -0.38    0.06    0.93   -0.09    0.00    0.00      -2.32    2.16   -0.21
#  36   -3.07   -0.37    0.19    0.56   -0.05    0.00    0.00      -2.74    2.30   -0.21
#  37   -1.59   -0.12    0.00    0.31   -0.03    0.00    0.00      -1.42    3.02   -0.28
#  38   -2.06   -0.25    0.02    0.67   -0.07    0.00    0.00      -1.68    2.88   -0.28
#  39   -2.98   -0.48    0.14    0.63   -0.07    0.00    0.00      -2.77    1.79   -0.21
#  40   -1.83   -0.14    0.00    0.38   -0.03    0.00    0.00      -1.61    2.93   -0.22
#  41   -2.24   -0.40    0.09    0.91   -0.09    0.00    0.00      -1.73    2.79   -0.28
#  42   -3.48   -1.17    0.80    1.89   -0.17    0.00    0.00      -2.13    3.12   -0.28
#  43   -2.65   -1.36    1.40    1.70   -0.12    0.00    0.00      -1.04    3.16   -0.23
#  44   -4.92   -0.75    0.27    0.99   -0.11    0.00    0.00      -4.53    1.82   -0.21
#  45   -2.78   -0.09    0.00    0.49   -0.02    0.00    0.00      -2.40    5.48   -0.22
#  46   -2.93   -0.20    0.03    1.13   -0.04    0.00    0.00      -2.02    5.92   -0.22
#  47   -3.78   -0.21    0.04    0.78   -0.05    0.00    0.00      -3.22    4.54   -0.28
#  48  -25.00   -0.35    0.33    6.40    0.51    0.00    0.00     -18.11   12.64    1.00
#  49   -0.79   -0.06    0.00    0.35   -0.01    0.00    0.00      -0.52    5.52   -0.23
#  50   -0.11   -0.04    0.00    0.10   -0.01    0.00    0.00      -0.06    2.46   -0.28
#  51   -0.17   -0.02    0.00    0.03   -0.01    0.00    0.00      -0.18    0.86   -0.25
#  52   -0.30   -0.44    0.29    0.90   -0.08    0.00    0.00       0.37    3.34   -0.28
#  53   -1.60   -0.15    0.01    0.42   -0.04    0.00    0.00      -1.36    2.78   -0.28
#  54   -0.74   -0.20    0.02    0.11   -0.05    0.00    0.00      -0.87    0.57   -0.28

@<TRIPOS>MOLECULE
          T530425       100
   54    55     0     0     0



@<TRIPOS>ATOM
      1 C1          8.0698   -11.7975    96.9627 C.3        1           0.0248
      2 O1          7.9999   -10.5863    97.7178 O.3        1          -0.3145
      3 C2          7.5558    -9.4787    97.0676 C.ar       1           0.1377
      4 C3          7.4681    -8.2675    97.7385 C.ar       1          -0.2067
      5 C4          7.0167    -7.1429    97.0752 C.ar       1          -0.0720
      6 C5          6.6521    -7.2238    95.7439 C.ar       1          -0.1419
      7 C6          6.1595    -5.9956    95.0229 C.3        1          -0.0684
      8 C7          4.6397    -5.8941    95.1683 C.3        1          -0.1329
      9 C8          4.1395    -4.6471    94.4363 C.3        1           0.0554
     10 C9          2.6198    -4.5457    94.5816 C.3        1          -0.1823
     11 C10         4.7943    -3.4035    95.0415 C.3        1          -0.1812
     12 N1          4.4901    -4.7413    93.0129 N.4        1          -0.4997
     13 H1          4.4681    -3.8211    92.5994 H          1           0.4303
     14 H2          5.4165    -5.1299    92.9195 H          1           0.4280
     15 C11         3.5238    -5.6094    92.3270 C.3        1          -0.0525
     16 C12         3.8888    -5.7074    90.8443 C.3        1           0.1374
     17 O2          3.8577    -4.4043    90.2589 O.3        1          -0.5443
     18 C13         2.8975    -6.5982    90.1408 C.ar       1          -0.1425
     19 C14         2.7489    -7.9146    90.5360 C.ar       1          -0.0751
     20 C15         1.8397    -8.7315    89.8907 C.ar       1          -0.1083
     21 C16         1.0783    -8.2319    88.8504 C.ar       1          -0.0526
     22 C17         1.2261    -6.9155    88.4560 C.ar       1          -0.1722
     23 C18         2.1326    -6.0974    89.1041 C.ar       1          -0.0523
     24 C19         0.3966    -6.3712    87.3217 C.3        1           0.5064
     25 F1         -0.4422    -7.3782    86.8322 F          1          -0.1707
     26 F2         -0.3786    -5.3016    87.7824 F          1          -0.1717
     27 F3          1.2404    -5.9284    86.2974 F          1          -0.1742
     28 C20         6.7390    -8.4297    95.0729 C.ar       1          -0.0728
     29 C21         7.1946    -9.5560    95.7303 C.ar       1          -0.1497
     30 H3          8.4390   -12.6017    97.5993 H          1           0.0576
     31 H4          7.0766   -12.0533    96.5933 H          1           0.0586
     32 H5          8.7471   -11.6614    96.1195 H          1           0.1061
     33 H6          7.7521    -8.2039    98.7785 H          1           0.1316
     34 H7          6.9483    -6.1998    97.5969 H          1           0.1238
     35 H8          6.6256    -5.1097    95.4541 H          1           0.0840
     36 H9          6.4196    -6.0654    93.9668 H          1           0.0829
     37 H10         4.1736    -6.7800    94.7371 H          1           0.0898
     38 H11         4.3795    -5.8242    96.2244 H          1           0.0907
     39 H12         2.2635    -3.6573    94.0601 H          1           0.1100
     40 H13         2.1536    -5.4315    94.1505 H          1           0.0819
     41 H14         2.3596    -4.4758    95.6379 H          1           0.0845
     42 H15         4.4380    -2.5151    94.5200 H          1           0.0834
     43 H16         4.5336    -3.3337    96.0977 H          1           0.0812
     44 H17         5.8765    -3.4758    94.9382 H          1           0.1098
     45 H18         3.5473    -6.6035    92.7735 H          1           0.1478
     46 H19         2.5228    -5.1897    92.4277 H          1           0.1404
     47 H20         4.8897    -6.1272    90.7437 H          1           0.1347
     48 H21         4.4723    -3.7768    90.6632 H          1           0.3883
     49 H22         3.3437    -8.3048    91.3485 H          1           0.1337
     50 H23         1.7242    -9.7600    90.1990 H          1           0.1462
     51 H24         0.3684    -8.8704    88.3457 H          1           0.1489
     52 H25         2.2454    -5.0677    88.7985 H          1           0.1397
     53 H26         6.4539    -8.4902    94.0330 H          1           0.1286
     54 H27         7.2659   -10.4968    95.2048 H          1           0.1346
@<TRIPOS>BOND
     1    1    2 1
     2    1   30 1
     3    1   31 1
     4    1   32 1
     5    2    3 1
     6    3   29 ar
     7    3    4 ar
     8    4    5 ar
     9    4   33 1
    10    5    6 ar
    11    5   34 1
    12    6    7 1
    13    6   28 ar
    14    7    8 1
    15    7   35 1
    16    7   36 1
    17    8    9 1
    18    8   37 1
    19    8   38 1
    20    9   10 1
    21    9   11 1
    22    9   12 1
    23   10   39 1
    24   10   40 1
    25   10   41 1
    26   11   42 1
    27   11   43 1
    28   11   44 1
    29   12   13 1
    30   12   14 1
    31   12   15 1
    32   15   16 1
    33   15   45 1
    34   15   46 1
    35   16   17 1
    36   16   18 1
    37   16   47 1
    38   17   48 1
    39   18   23 ar
    40   18   19 ar
    41   19   20 ar
    42   19   49 1
    43   20   21 ar
    44   20   50 1
    45   21   22 ar
    46   21   51 1
    47   22   23 ar
    48   22   24 1
    49   23   52 1
    50   24   25 1
    51   24   26 1
    52   24   27 1
    53   28   29 ar
    54   28   53 1
    55   29   54 1
##########                 Name:              T537963
##########          Protonation:                   30
##########               SMILES:   Cc1cccc2c1[nH]c(n2)c3cccc(c3)c4cccc(c4)C[NH+]5CCN(CC5)c6cc[nH+]cc6
##########            Long Name:   yridin-1-ium-4-ylpiperazin-1-ium-1-yl)methyl]phenyl]phenyl]-1H-benzimidazole
##########          FlexRecCode: 1
##########               Number:                  250
##########   Ligand Source File: /raidb/db2/rgc/tcams/tcams-0001711.db2.gz
##########           GlobalRank: 247
##########                 Rank:                    1
##########               Setnum:                   40
##########             Matchnum:                  131
##########                Cloud:                    1
##########        Electrostatic:           -47.149837
##########        Van der Waals:           -28.790136
##########  Ligand Polar Desolv:            14.855433
########## Ligand Apolar Desolv:            -4.602770
##########      Internal Energy:             0.000000
##########      Receptor Energy: 0.0
########## Receptor Desolvation:             0.000000
########## Receptor Hydrophobic:             0.000000
##########         Total Energy: -65.69
##########        Ligand Charge:             2.000000
##########            Arbitrary:    +999.9990
##########     heavy atom count:   35
##########           pose count:    1
##########        Ligand Energy:             0.000000
# num electro vdwattr vdwrepu polsolv apolsol rdesolv rhydroe totalscore fullpol fullapo
#   1    1.26   -1.79    0.96   -0.63   -0.11    0.00    0.00      -0.32   -1.12   -0.20
#   2    0.68   -1.54    0.19   -0.34   -0.22    0.00    0.00      -1.23   -0.64   -0.41
#   3   -0.43   -1.39    0.18   -0.01   -0.31    0.00    0.00      -1.96   -0.02   -0.75
#   4    4.42   -1.73    0.34   -1.72    0.44    0.00    0.00       1.76   -4.43    1.14
#   5   -1.35   -1.65    0.44    0.74   -0.74    0.00    0.00      -2.56    2.12   -2.13
#   6    1.22   -1.66    0.47   -0.60    0.66    0.00    0.00       0.09   -1.84    2.04
#   7   -0.28   -1.24    0.12   -0.07   -0.29    0.00    0.00      -1.77   -0.20   -0.79
#   8    0.68   -1.39    0.19   -0.26   -0.20    0.00    0.00      -0.96   -0.62   -0.47
#   9    1.35   -2.10    0.56   -0.39   -0.23    0.00    0.00      -0.82   -0.79   -0.47
#  10    0.74   -2.03    0.34   -0.55   -0.26    0.00    0.00      -1.75   -0.96   -0.45
#  11    0.06   -1.61    0.74   -0.35   -0.13    0.00    0.00      -1.29   -1.09   -0.41
#  12    1.08   -1.44    0.17   -0.75   -0.18    0.00    0.00      -1.11   -1.91   -0.45
#  13    1.96   -1.41    0.15   -0.93   -0.19    0.00    0.00      -0.41   -2.30   -0.47
#  14    1.77   -0.86    0.04   -0.46   -0.14    0.00    0.00       0.34   -1.43   -0.44
#  15    0.78   -0.84    0.15   -0.18   -0.09    0.00    0.00      -0.19   -0.83   -0.41
#  16    0.19   -1.81    1.73   -0.36   -0.10    0.00    0.00      -0.35   -1.46   -0.42
#  17    0.21   -0.53    0.03   -0.39   -0.07    0.00    0.00      -0.74   -2.25   -0.41
#  18    0.96   -0.50    0.01   -0.62   -0.09    0.00    0.00      -0.24   -3.12   -0.44
#  19    0.79   -0.47    0.02   -0.68   -0.08    0.00    0.00      -0.43   -3.84   -0.47
#  20    0.41   -0.34    0.01   -0.25   -0.04    0.00    0.00      -0.21   -2.06   -0.36
#  21    1.09   -0.28    0.01   -0.41   -0.04    0.00    0.00       0.37   -3.65   -0.33
#  22   -0.21   -0.12    0.00    0.22   -0.03    0.00    0.00      -0.14    3.00   -0.36
#  23    3.78   -0.21    0.00   -1.74    0.03    0.00    0.00       1.87  -17.06    0.27
#  24   -5.18    0.00    0.00    0.92    0.02    0.00    0.00      -4.24   21.40    0.53
#  25    0.49   -0.54    0.06   -0.24   -0.09    0.00    0.00      -0.32   -1.00   -0.37
#  26   -2.57   -1.22    0.47    0.97   -0.14    0.00    0.00      -2.49    3.31   -0.48
#  27   11.25   -0.68    0.04   -5.54    0.37    0.00    0.00       5.44  -25.22    1.69
#  28   -0.84   -0.17    0.00    0.32   -0.05    0.00    0.00      -0.74    2.99   -0.47
#  29    0.14   -0.12    0.00   -0.02   -0.03    0.00    0.00      -0.03   -0.29   -0.40
#  30   -6.80   -1.01    0.10    3.85   -0.22    0.00    0.00      -4.09   12.04   -0.70
#  31    4.19   -2.31    1.35   -3.55   -0.17    0.00    0.00      -0.50   -8.96   -0.44
#  32   -5.10   -2.60    0.96    2.81   -0.46    0.00    0.00      -4.38    5.92   -0.97
#  33   18.55   -3.93    4.12   -9.19    0.47    0.00    0.00      10.02  -18.80    0.97
#  34  -22.68   -0.22    0.14    8.99    0.29    0.00    0.00     -13.48   18.10    0.59
#  35   -6.01   -2.51    1.38    2.51   -0.42    0.00    0.00      -5.05    5.82   -0.97
#  36    4.82   -0.92    0.06   -3.08   -0.15    0.00    0.00       0.73   -9.09   -0.44
#  37    0.90   -0.40    0.02   -0.30   -0.06    0.00    0.00       0.15   -2.04   -0.42
#  38   -1.11   -0.66    0.60    0.37   -0.12    0.00    0.00      -0.91    0.87   -0.28
#  39   -0.48   -0.73    0.47    0.52   -0.17    0.00    0.00      -0.38    0.89   -0.28
#  40   -0.90   -0.81    1.71    0.47   -0.13    0.00    0.00       0.34    1.00   -0.28
#  41   -4.39   -0.03    0.00    1.49    0.15    0.00    0.00      -2.77    5.18    0.53
#  42   -1.57   -0.27    0.05    0.17   -0.07    0.00    0.00      -1.70    0.68   -0.28
#  43   -2.11   -1.01    1.34    0.75   -0.13    0.00    0.00      -1.15    1.59   -0.28
#  44   -0.38   -0.83    0.41    0.88   -0.14    0.00    0.00      -0.06    1.72   -0.28
#  45   -1.62   -0.34    0.04    0.72   -0.08    0.00    0.00      -1.28    2.05   -0.24
#  46   -3.10   -0.56    0.24    1.64   -0.11    0.00    0.00      -1.89    4.18   -0.28
#  47   -2.93   -0.16    0.00    1.06   -0.03    0.00    0.00      -2.06    6.92   -0.21
#  48    0.10   -0.40    0.28    0.11   -0.04    0.00    0.00       0.05    0.58   -0.20
#  49   -2.61   -0.11    0.00    0.02   -0.02    0.00    0.00      -2.72    0.23   -0.22
#  50   -1.26   -0.11    0.01    0.24   -0.03    0.00    0.00      -1.16    2.16   -0.28
#  51   -0.21   -0.06    0.00    0.41   -0.01    0.00    0.00       0.14    7.44   -0.27
#  52   -0.25   -0.02    0.00    0.27   -0.01    0.00    0.00      -0.01    8.89   -0.27
#  53   -0.36   -0.03    0.00    0.31   -0.01    0.00    0.00      -0.10    8.18   -0.28
#  54   -0.67   -0.18    0.02    1.42   -0.05    0.00    0.00       0.54    7.86   -0.28
#  55   -3.57   -0.20    0.02    1.11   -0.04    0.00    0.00      -2.68    5.43   -0.20
#  56   -6.42   -1.18    1.50    2.09   -0.07    0.00    0.00      -4.09    5.61   -0.20
#  57   -4.05   -0.42    0.21    1.05   -0.07    0.00    0.00      -3.28    4.38   -0.28
#  58   -0.93   -0.06    0.00    0.39   -0.01    0.00    0.00      -0.60    6.38   -0.20
#  59   -1.25   -0.04    0.00    0.20   -0.01    0.00    0.00      -1.10    5.19   -0.28
#  60   -0.59   -0.02    0.00    0.25   -0.01    0.00    0.00      -0.36    9.35   -0.28
#  61   -0.45   -0.04    0.00    0.30   -0.01    0.00    0.00      -0.20    7.51   -0.28
#  62   -1.61   -0.92    1.73    2.47   -0.06    0.00    0.00       1.61    8.34   -0.21
#  63   -4.74   -0.62    0.39    3.94   -0.12    0.00    0.00      -1.16    9.22   -0.28
#  64   -7.52   -0.91    1.10    3.27   -0.10    0.00    0.00      -4.17    8.91   -0.28
#  65   -3.06   -0.10    0.00    0.67   -0.02    0.00    0.00      -2.50    7.77   -0.20
#  66   -1.44   -0.07    0.00    0.56   -0.02    0.00    0.00      -0.97    7.46   -0.22

@<TRIPOS>MOLECULE
          T537963        30
   66    71     0     0     0



@<TRIPOS>ATOM
      1 C1          9.1243   -10.9181    99.1073 C.3        1          -0.1164
      2 C2          8.8011   -11.4223    97.7244 C.ar       1          -0.0793
      3 C3          7.8510   -10.7715    96.9495 C.ar       1           0.0603
      4 N1          7.0461    -9.6668    97.1468 N.pl3      1          -0.5908
      5 C4          6.3018    -9.5000    96.0103 C.2        1           0.3051
      6 N2          6.6052   -10.4320    95.1407 N.2        1          -0.4728
      7 C5          7.5546   -11.2477    95.6600 C.ar       1           0.0495
      8 C6          8.2236   -12.3758    95.1734 C.ar       1          -0.0685
      9 C7          9.1550   -13.0028    95.9510 C.ar       1          -0.1166
     10 C8          9.4521   -12.5288    97.2212 C.ar       1          -0.0938
     11 C9          5.3042    -8.4290    95.7962 C.ar       1          -0.0105
     12 C10         5.0668    -7.4837    96.7959 C.ar       1          -0.0892
     13 C11         4.1357    -6.4843    96.5968 C.ar       1          -0.1092
     14 C12         3.4339    -6.4131    95.4090 C.ar       1          -0.0950
     15 C13         3.6621    -7.3511    94.4032 C.ar       1          -0.0691
     16 C14         4.6034    -8.3574    94.5942 C.ar       1          -0.0565
     17 C15         2.9064    -7.2725    93.1283 C.ar       1          -0.0188
     18 C16         1.6185    -6.7407    93.1105 C.ar       1          -0.0743
     19 C17         0.9202    -6.6701    91.9224 C.ar       1          -0.1026
     20 C18         1.4961    -7.1260    90.7506 C.ar       1          -0.1042
     21 C19         2.7742    -7.6553    90.7622 C.ar       1          -0.1637
     22 C20         3.3953    -8.1502    89.4815 C.3        1           0.0460
     23 N3          4.7793    -7.6662    89.3897 N.4        1          -0.3855
     24 H1          5.3081    -8.0122    90.1763 H          1           0.4263
     25 C21         4.7848    -6.1980    89.4061 C.3        1          -0.0297
     26 C22         6.2315    -5.6938    89.4260 C.3        1           0.0839
     27 N4          6.9492    -6.2909    88.2891 N.pl3      1          -0.6050
     28 C23         6.8617    -7.7475    88.1018 C.3        1           0.0825
     29 C24         5.3844    -8.1530    88.1434 C.3        1          -0.0227
     30 C25         7.6895    -5.5002    87.4153 C.ar       1           0.3152
     31 C26         7.0817    -4.4798    86.6840 C.ar       1          -0.2074
     32 C27         7.8507    -3.7187    85.8292 C.ar       1           0.1801
     33 N5          9.1445    -3.9460    85.6990 N.ar       1          -0.4827
     34 H2          9.6604    -3.3947    85.0902 H          1           0.4554
     35 C28         9.7563    -4.9015    86.3735 C.ar       1           0.1802
     36 C29         9.0597    -5.7038    87.2524 C.ar       1          -0.2082
     37 C30         3.4841    -7.7250    91.9442 C.ar       1          -0.0905
     38 H3          8.5133   -10.0426    99.3268 H          1           0.0743
     39 H4          8.9144   -11.6999    99.8373 H          1           0.0572
     40 H5         10.1789   -10.6472    99.1581 H          1           0.0779
     41 H6          7.0142    -9.1125    97.9422 H          1           0.4228
     42 H7          8.0037   -12.7503    94.1846 H          1           0.1316
     43 H8          9.6694   -13.8734    95.5716 H          1           0.1356
     44 H9         10.1950   -13.0331    97.8215 H          1           0.1360
     45 H10         5.6121    -7.5348    97.7267 H          1           0.1282
     46 H11         3.9547    -5.7555    97.3730 H          1           0.1377
     47 H12         2.7064    -5.6290    95.2593 H          1           0.1262
     48 H13         4.7865    -9.0835    93.8159 H          1           0.1446
     49 H14         1.1675    -6.3847    94.0250 H          1           0.1438
     50 H15        -0.0781    -6.2582    91.9074 H          1           0.1416
     51 H16         0.9461    -7.0702    89.8228 H          1           0.1307
     52 H17         3.3902    -9.2402    89.4725 H          1           0.1433
     53 H18         2.8229    -7.7772    88.6323 H          1           0.1394
     54 H19         4.2813    -5.8227    88.5152 H          1           0.1389
     55 H20         4.2637    -5.8426    90.2951 H          1           0.1558
     56 H21         6.2420    -4.6075    89.3361 H          1           0.1355
     57 H22         6.7104    -5.9917    90.3587 H          1           0.1133
     58 H23         7.2887    -8.0189    87.1366 H          1           0.1362
     59 H24         7.4042    -8.2526    88.9009 H          1           0.1134
     60 H25         5.3056    -9.2393    88.1011 H          1           0.1553
     61 H26         4.8624    -7.7172    87.2916 H          1           0.1393
     62 H27         6.0236    -4.2888    86.7856 H          1           0.1804
     63 H28         7.3885    -2.9267    85.2587 H          1           0.2123
     64 H29        10.8169    -5.0543    86.2382 H          1           0.2122
     65 H30         9.5672    -6.4810    87.8045 H          1           0.1801
     66 H31         4.4836    -8.1341    91.9516 H          1           0.1348
@<TRIPOS>BOND
     1    1    2 1
     2    1   38 1
     3    1   39 1
     4    1   40 1
     5    2   10 ar
     6    2    3 ar
     7    3    7 ar
     8    3    4 1
     9    4    5 1
    10    4   41 1
    11    5    6 2
    12    5   11 1
    13    6    7 1
    14    7    8 ar
    15    8    9 ar
    16    8   42 1
    17    9   10 ar
    18    9   43 1
    19   10   44 1
    20   11   16 ar
    21   11   12 ar
    22   12   13 ar
    23   12   45 1
    24   13   14 ar
    25   13   46 1
    26   14   15 ar
    27   14   47 1
    28   15   16 ar
    29   15   17 1
    30   16   48 1
    31   17   37 ar
    32   17   18 ar
    33   18   19 ar
    34   18   49 1
    35   19   20 ar
    36   19   50 1
    37   20   21 ar
    38   20   51 1
    39   21   22 1
    40   21   37 ar
    41   22   23 1
    42   22   52 1
    43   22   53 1
    44   23   24 1
    45   23   29 1
    46   23   25 1
    47   25   26 1
    48   25   54 1
    49   25   55 1
    50   26   27 1
    51   26   56 1
    52   26   57 1
    53   27   28 1
    54   27   30 1
    55   28   29 1
    56   28   58 1
    57   28   59 1
    58   29   60 1
    59   29   61 1
    60   30   36 ar
    61   30   31 ar
    62   31   32 ar
    63   31   62 1
    64   32   33 ar
    65   32   63 1
    66   33   34 1
    67   33   35 ar
    68   35   36 ar
    69   35   64 1
    70   36   65 1
    71   37   66 1
##########                 Name:              T536030
##########          Protonation:                   12
##########               SMILES:   C[NH2+]CC[NH2+]Cc1cccc(c1)c2ccc(s2)c3[nH]c4ccccc4n3
##########            Long Name:   -benzimidazol-2-yl)-2-thienyl]phenyl]methyl-[2-(methylammonio)ethyl]ammonium
##########          FlexRecCode: 1
##########               Number:                  291
##########   Ligand Source File: /raidb/db2/rgc/tcams/tcams-0001429.db2.gz
##########           GlobalRank: 248
##########                 Rank:                    1
##########               Setnum:                   57
##########             Matchnum:                 3079
##########                Cloud:                    1
##########        Electrostatic:           -66.796494
##########        Van der Waals:           -18.627308
##########  Ligand Polar Desolv:            22.170191
########## Ligand Apolar Desolv:            -2.391400
##########      Internal Energy:             0.000000
##########      Receptor Energy: 0.0
########## Receptor Desolvation:             0.000000
########## Receptor Hydrophobic:             0.000000
##########         Total Energy: -65.65
##########        Ligand Charge:             2.000000
##########            Arbitrary:    +999.9990
##########     heavy atom count:   26
##########           pose count:    1
##########        Ligand Energy:             0.000000
# num electro vdwattr vdwrepu polsolv apolsol rdesolv rhydroe totalscore fullpol fullapo
#   1    1.02   -0.79    0.13   -0.56   -0.15    0.00    0.00      -0.35   -1.98   -0.54
#   2   17.92   -1.77    1.13   -7.94    0.27    0.00    0.00       9.62  -26.67    0.90
#   3  -13.23   -0.02    0.00    4.00    0.09    0.00    0.00      -9.16   26.45    0.57
#   4  -26.01   -0.16    0.04    9.66    0.21    0.00    0.00     -16.27   26.50    0.57
#   5    1.07   -0.80    0.13   -0.62   -0.12    0.00    0.00      -0.34   -2.17   -0.42
#   6    1.22   -0.79    0.11   -0.56   -0.15    0.00    0.00      -0.17   -1.63   -0.42
#   7   12.55   -0.65    0.05   -7.08    0.18    0.00    0.00       5.06  -28.15    0.73
#   8   -6.37   -0.01    0.00    2.74    0.06    0.00    0.00      -3.58   26.71    0.57
#   9  -12.80   -0.01    0.00    3.87    0.08    0.00    0.00      -8.87   26.32    0.57
#  10   -1.15   -0.67    0.05    1.43   -0.15    0.00    0.00      -0.50    4.01   -0.42
#  11    2.63   -0.99    0.06   -1.38   -0.13    0.00    0.00       0.19   -3.97   -0.37
#  12    1.37   -1.37    0.14   -0.75   -0.20    0.00    0.00      -0.82   -1.72   -0.45
#  13    1.25   -1.49    0.18   -2.09   -0.21    0.00    0.00      -2.36   -4.69   -0.47
#  14    0.53   -1.27    0.13   -1.07   -0.16    0.00    0.00      -1.84   -3.04   -0.46
#  15   -0.16   -1.19    0.16   -0.75   -0.13    0.00    0.00      -2.06   -2.40   -0.41
#  16    0.91   -1.01    0.13   -0.62   -0.13    0.00    0.00      -0.73   -2.15   -0.44
#  17    0.66   -1.22    0.22   -0.14   -0.09    0.00    0.00      -0.56   -0.48   -0.31
#  18    0.81   -1.23    0.15   -1.32   -0.16    0.00    0.00      -1.75   -3.85   -0.46
#  19    1.22   -1.61    0.44   -0.30   -0.15    0.00    0.00      -0.40   -0.90   -0.47
#  20    0.43   -0.95    0.16   -0.83   -0.08    0.00    0.00      -1.27   -3.32   -0.32
#  21   -0.26   -1.97    1.21    1.33   -0.17    0.00    0.00       0.14    6.14   -0.81
#  22   -1.68   -0.64    0.09    0.60   -0.42    0.00    0.00      -2.06    3.13   -2.19
#  23    0.45   -0.27    0.01   -0.23    0.23    0.00    0.00       0.19   -2.15    2.13
#  24   -0.03   -0.17    0.00   -0.02   -0.06    0.00    0.00      -0.27   -0.28   -0.79
#  25    0.03   -0.07    0.00   -0.02   -0.01    0.00    0.00      -0.08   -0.78   -0.47
#  26    0.05   -0.06    0.00   -0.03   -0.01    0.00    0.00      -0.04   -1.01   -0.47
#  27    0.04   -0.09    0.00   -0.05   -0.02    0.00    0.00      -0.12   -1.22   -0.47
#  28    0.10   -0.31    0.04   -0.11   -0.04    0.00    0.00      -0.32   -1.13   -0.47
#  29   -0.07   -0.47    0.11    0.02   -0.09    0.00    0.00      -0.49    0.20   -0.78
#  30    4.63   -1.80    2.17   -1.31    0.24    0.00    0.00       3.93   -6.54    1.18
#  31   -2.29   -0.52    0.25    1.70   -0.09    0.00    0.00      -0.95    5.19   -0.28
#  32   -2.68   -0.19    0.02    0.76   -0.05    0.00    0.00      -2.15    3.91   -0.28
#  33   -1.40   -0.09    0.00    0.46   -0.03    0.00    0.00      -1.04    5.13   -0.28
#  34   -4.09   -0.50    0.26    2.91   -0.09    0.00    0.00      -1.50    9.52   -0.28
#  35   -2.69   -0.10    0.00    0.92   -0.03    0.00    0.00      -1.89    9.35   -0.28
#  36   -7.00   -0.52    0.30    4.08   -0.10    0.00    0.00      -3.24   11.34   -0.28
#  37   -4.25   -0.18    0.01    2.13   -0.05    0.00    0.00      -2.34   11.60   -0.28
#  38   -4.39   -0.29    0.04    3.10   -0.09    0.00    0.00      -1.64    9.67   -0.28
#  39   -3.10   -0.23    0.02    2.27   -0.06    0.00    0.00      -1.10   10.38   -0.28
#  40   -2.15   -0.44    0.24    3.11   -0.10    0.00    0.00       0.66    8.84   -0.28
#  41   -2.24   -0.33    0.04    0.95   -0.10    0.00    0.00      -1.67    2.66   -0.28
#  42   -1.21   -0.21    0.01    0.20   -0.05    0.00    0.00      -1.25    1.01   -0.24
#  43   -1.28   -0.15    0.01    0.93   -0.03    0.00    0.00      -0.52    7.20   -0.27
#  44   -1.41   -0.22    0.01    0.45   -0.06    0.00    0.00      -1.22    1.92   -0.25
#  45   -3.91   -1.05    2.14    0.08   -0.10    0.00    0.00      -2.83    0.24   -0.28
#  46   -0.08   -0.01    0.00    0.01    0.00    0.00    0.00      -0.08    0.36   -0.28
#  47   -0.04   -0.01    0.00    0.02    0.00    0.00    0.00      -0.03    1.60   -0.28
#  48   -0.05   -0.01    0.00    0.04    0.00    0.00    0.00      -0.03    2.53   -0.28
#  49   -0.13   -0.10    0.02    0.27   -0.03    0.00    0.00       0.03    2.96   -0.28
#  50   -9.54   -0.18    0.11    1.90    0.14    0.00    0.00      -7.56    7.87    0.59

@<TRIPOS>MOLECULE
          T536030        12
   50    53     0     0     0



@<TRIPOS>ATOM
      1 C1          3.9959    -5.7178    90.1161 C.3        1          -0.0510
      2 N1          4.5641    -5.5653    91.4623 N.4        1          -0.5029
      3 H1          5.0835    -6.3957    91.7041 H          1           0.4397
      4 H2          5.1802    -4.7663    91.4788 H          1           0.4398
      5 C2          3.4789    -5.3666    92.4322 C.3        1          -0.0383
      6 C3          4.0706    -5.2079    93.8342 C.3        1          -0.0377
      7 N2          4.8270    -6.4169    94.1864 N.4        1          -0.5058
      8 H3          4.2108    -7.2158    94.1699 H          1           0.4366
      9 H4          5.5724    -6.5533    93.5201 H          1           0.4359
     10 C4          5.3952    -6.2643    95.5323 C.3        1           0.0495
     11 C5          6.1711    -7.5048    95.8935 C.ar       1          -0.1697
     12 C6          6.7958    -7.5942    97.1251 C.ar       1          -0.0926
     13 C7          7.5104    -8.7291    97.4646 C.ar       1          -0.0997
     14 C8          7.6049    -9.7801    96.5759 C.ar       1          -0.0608
     15 C9          6.9769    -9.6967    95.3320 C.ar       1           0.0236
     16 C10         6.2525    -8.5506    94.9980 C.ar       1          -0.0909
     17 C11         7.0741   -10.8183    94.3749 C.2        1          -0.1495
     18 C12         7.7272   -12.0287    94.5188 C.2        1          -0.1088
     19 C13         7.6815   -12.9286    93.4873 C.2        1          -0.1054
     20 C14         6.9827   -12.5902    92.3405 C.2        1          -0.0732
     21 S1          6.3721   -10.9610    92.7398 S.3        1           0.0944
     22 C15         6.7889   -13.3737    91.1124 C.2        1           0.3372
     23 N3          6.1115   -12.9750    90.0593 N.2        1          -0.4488
     24 C16         6.1351   -13.9415    89.1101 C.ar       1           0.0463
     25 C17         5.5878   -14.0397    87.8263 C.ar       1          -0.0549
     26 C18         5.7861   -15.1708    87.0864 C.ar       1          -0.1215
     27 C19         6.5268   -16.2283    87.5947 C.ar       1          -0.0822
     28 C20         7.0756   -16.1543    88.8582 C.ar       1          -0.1192
     29 C21         6.8857   -15.0135    89.6249 C.ar       1           0.0637
     30 N4          7.2927   -14.6298    90.8891 N.pl3      1          -0.5966
     31 H5          3.4348    -4.8206    89.8549 H          1           0.1314
     32 H6          4.8011    -5.8651    89.3964 H          1           0.1412
     33 H7          3.3303    -6.5807    90.0985 H          1           0.1311
     34 H8          2.9176    -4.4695    92.1709 H          1           0.1547
     35 H9          2.8133    -6.2297    92.4145 H          1           0.1542
     36 H10         4.7362    -4.3448    93.8520 H          1           0.1548
     37 H11         3.2654    -5.0605    94.5539 H          1           0.1557
     38 H12         6.0609    -5.4014    95.5500 H          1           0.1444
     39 H13         4.5900    -6.1170    96.2520 H          1           0.1470
     40 H14         6.7253    -6.7741    97.8244 H          1           0.1352
     41 H15         7.9959    -8.7922    98.4274 H          1           0.1462
     42 H16         8.1637   -10.6653    96.8419 H          1           0.1448
     43 H17         5.7606    -8.4816    94.0390 H          1           0.1310
     44 H18         8.2635   -12.2600    95.4272 H          1           0.1500
     45 H19         8.1809   -13.8830    93.5663 H          1           0.1599
     46 H20         5.0094   -13.2227    87.4211 H          1           0.1367
     47 H21         5.3616   -15.2428    86.0959 H          1           0.1385
     48 H22         6.6743   -17.1157    86.9970 H          1           0.1382
     49 H23         7.6506   -16.9808    89.2488 H          1           0.1269
     50 H24         7.8319   -15.1516    91.5037 H          1           0.4208
@<TRIPOS>BOND
     1    1    2 1
     2    1   31 1
     3    1   32 1
     4    1   33 1
     5    2    3 1
     6    2    4 1
     7    2    5 1
     8    5    6 1
     9    5   34 1
    10    5   35 1
    11    6    7 1
    12    6   36 1
    13    6   37 1
    14    7    8 1
    15    7    9 1
    16    7   10 1
    17   10   11 1
    18   10   38 1
    19   10   39 1
    20   11   16 ar
    21   11   12 ar
    22   12   13 ar
    23   12   40 1
    24   13   14 ar
    25   13   41 1
    26   14   15 ar
    27   14   42 1
    28   15   16 ar
    29   15   17 1
    30   16   43 1
    31   17   21 1
    32   17   18 2
    33   18   19 1
    34   18   44 1
    35   19   20 2
    36   19   45 1
    37   20   21 1
    38   20   22 1
    39   22   30 1
    40   22   23 2
    41   23   24 1
    42   24   29 ar
    43   24   25 ar
    44   25   26 ar
    45   25   46 1
    46   26   27 ar
    47   26   47 1
    48   27   28 ar
    49   27   48 1
    50   28   29 ar
    51   28   49 1
    52   29   30 1
    53   30   50 1
##########                 Name:              T535549
##########          Protonation:                  100
##########               SMILES:   C[C@@H](Cc1ccc(cc1)C(=O)OC)[NH2+]C[C@H](c2cccc3c2cccc3)O
##########            Long Name:   (1-naphthyl)ethyl]-[(1S)-2-(4-methoxycarbonylphenyl)-1-methyl-ethyl]ammonium
##########          FlexRecCode: 1
##########               Number:                  176
##########   Ligand Source File: /raidb/db2/rgc/tcams/tcams-0001372.db2.gz
##########           GlobalRank: 249
##########                 Rank:                    1
##########               Setnum:                   87
##########             Matchnum:                 2550
##########                Cloud:                    1
##########        Electrostatic:           -44.991386
##########        Van der Waals:           -26.172758
##########  Ligand Polar Desolv:             9.924223
########## Ligand Apolar Desolv:            -4.404778
##########      Internal Energy:             0.000000
##########      Receptor Energy: 0.0
########## Receptor Desolvation:             0.000000
########## Receptor Hydrophobic:             0.000000
##########         Total Energy: -65.64
##########        Ligand Charge:             1.000000
##########            Arbitrary:    +999.9990
##########     heavy atom count:   27
##########           pose count:    1
##########        Ligand Energy:             0.000000
# num electro vdwattr vdwrepu polsolv apolsol rdesolv rhydroe totalscore fullpol fullapo
#   1   -0.06   -0.39    0.03    0.03    0.01    0.00    0.00      -0.38    0.14    0.04
#   2    0.69   -0.36    0.01   -0.40    0.06    0.00    0.00      -0.01   -2.16    0.31
#   3   -1.54   -0.70    0.05    0.73   -0.04    0.00    0.00      -1.50    2.72   -0.16
#   4    2.21   -1.36    0.26   -0.47   -0.15    0.00    0.00       0.48   -1.27   -0.39
#   5    1.16   -0.53    0.02   -0.47   -0.09    0.00    0.00       0.08   -2.19   -0.41
#   6    0.93   -0.78    0.04   -0.34   -0.13    0.00    0.00      -0.28   -1.18   -0.46
#   7    2.65   -0.87    0.04   -0.80   -0.15    0.00    0.00       0.87   -2.46   -0.45
#   8    2.49   -0.95    0.06   -0.24   -0.10    0.00    0.00       1.26   -0.75   -0.33
#   9    3.92   -1.36    0.25   -1.43   -0.10    0.00    0.00       1.29   -3.12   -0.21
#  10   -1.07   -1.22    0.28    1.03   -0.11    0.00    0.00      -1.10    2.20   -0.24
#  11    7.36   -2.83    1.50   -3.58   -0.11    0.00    0.00       2.32   -5.99   -0.19
#  12   19.25   -1.75    1.77   -6.04    0.22    0.00    0.00      13.44  -17.14    0.62
#  13  -13.12   -0.01    0.00    2.28    0.06    0.00    0.00     -10.79   15.29    0.42
#  14  -25.11   -0.18    0.11    5.57    0.17    0.00    0.00     -19.44   17.04    0.53
#  15    1.19   -0.94    0.19   -0.29   -0.13    0.00    0.00       0.03   -0.82   -0.36
#  16   -1.99   -0.62    0.03    1.26   -0.04    0.00    0.00      -1.35    3.77   -0.12
#  17    4.69   -0.97    0.25   -3.96    0.43    0.00    0.00       0.44  -14.77    1.62
#  18    1.21   -1.21    0.12   -0.62   -0.12    0.00    0.00      -0.61   -1.79   -0.35
#  19    0.39   -1.44    0.17   -0.42   -0.17    0.00    0.00      -1.47   -1.00   -0.40
#  20    2.22   -1.83    0.23   -0.79   -0.23    0.00    0.00      -0.39   -1.51   -0.43
#  21    1.90   -2.88    0.66   -1.15   -0.28    0.00    0.00      -1.75   -1.89   -0.47
#  22    2.44   -3.35    1.70   -0.76   -0.28    0.00    0.00      -0.24   -1.29   -0.47
#  23    1.18   -2.24    0.89   -0.69   -0.24    0.00    0.00      -1.10   -1.29   -0.46
#  24    0.53   -1.67    0.43   -0.41   -0.17    0.00    0.00      -1.29   -0.95   -0.40
#  25    0.48   -1.46    0.19   -0.72   -0.20    0.00    0.00      -1.71   -1.61   -0.46
#  26    0.36   -1.76    0.38   -0.60   -0.17    0.00    0.00      -1.79   -1.62   -0.47
#  27    0.22   -1.84    0.78   -0.66   -0.14    0.00    0.00      -1.64   -1.96   -0.43
#  28    3.51   -0.79    0.06   -0.70   -0.09    0.00    0.00       1.99   -2.81   -0.38
#  29    0.54   -0.45    0.01   -0.21   -0.08    0.00    0.00      -0.18   -1.20   -0.46
#  30   -0.10   -0.06    0.00    0.02   -0.02    0.00    0.00      -0.16    0.31   -0.28
#  31   -0.15   -0.12    0.01    0.21   -0.04    0.00    0.00      -0.09    1.52   -0.28
#  32   -0.16   -0.30    0.10    0.05   -0.06    0.00    0.00      -0.38    0.20   -0.28
#  33   -3.79   -0.27    0.06    0.38   -0.07    0.00    0.00      -3.68    1.50   -0.27
#  34   -3.61   -0.26    0.02    1.29   -0.09    0.00    0.00      -2.65    4.15   -0.28
#  35   -5.20   -0.86    0.62    2.16   -0.13    0.00    0.00      -3.40    4.68   -0.28
#  36   -4.42   -0.67    0.31    1.73   -0.13    0.00    0.00      -3.17    3.72   -0.28
#  37   -3.81   -0.29    0.04    1.33   -0.07    0.00    0.00      -2.80    5.49   -0.28
#  38   -2.80   -0.70    0.28    1.72   -0.12    0.00    0.00      -1.62    3.00   -0.21
#  39   -4.56   -1.52    2.64    1.94   -0.17    0.00    0.00      -1.67    3.19   -0.28
#  40   -3.85   -2.01    5.31    1.32   -0.17    0.00    0.00       0.60    2.21   -0.28
#  41   -3.07   -0.35    0.14    1.38   -0.05    0.00    0.00      -1.96    6.16   -0.23
#  42   -3.90   -0.46    0.16    1.98   -0.11    0.00    0.00      -2.33    5.10   -0.28
#  43   -2.16   -0.22    0.02    0.87   -0.05    0.00    0.00      -1.54    3.94   -0.23
#  44   -5.79   -0.01    0.00    1.36    0.11    0.00    0.00      -4.33   11.98    0.98
#  45   -1.95   -0.43    0.18    1.77   -0.08    0.00    0.00      -0.50    4.92   -0.22
#  46   -3.02   -0.96    0.34    1.29   -0.17    0.00    0.00      -2.52    2.07   -0.28
#  47   -3.33   -1.36    1.85    0.56   -0.17    0.00    0.00      -2.45    0.93   -0.28
#  48   -1.38   -0.45    0.16    0.28   -0.13    0.00    0.00      -1.52    0.61   -0.28
#  49   -1.01   -0.26    0.02    0.27   -0.10    0.00    0.00      -1.10    0.73   -0.28
#  50   -0.26   -0.45    0.14    0.53   -0.09    0.00    0.00      -0.12    1.74   -0.28
#  51    0.13   -0.54    0.47    0.99   -0.05    0.00    0.00       1.00    4.31   -0.21
#  52   -4.26   -0.25    0.05    1.28   -0.06    0.00    0.00      -3.24    6.22   -0.28
#  53   -1.21   -0.06    0.00    0.07   -0.01    0.00    0.00      -1.21    1.33   -0.26

@<TRIPOS>MOLECULE
          T535549       100
   53    55     0     0     0



@<TRIPOS>ATOM
      1 C1         -0.9778    -9.2998    91.1689 C.3        1           0.0327
      2 O1         -0.0115    -8.2948    91.4822 O.3        1          -0.3479
      3 C2          0.3261    -8.1541    92.7788 C.2        1           0.4988
      4 O2         -0.1857    -8.8650    93.6202 O.2        1          -0.4914
      5 C3          1.3189    -7.1353    93.1772 C.ar       1          -0.1070
      6 C4          1.2477    -6.5424    94.4393 C.ar       1          -0.0493
      7 C5          2.1780    -5.5919    94.8047 C.ar       1          -0.1158
      8 C6          3.1803    -5.2256    93.9240 C.ar       1          -0.0938
      9 C7          4.1932    -4.1864    94.3303 C.3        1          -0.1044
     10 C8          5.3845    -4.8710    95.0032 C.3        1           0.0295
     11 C9          6.4129    -3.8159    95.4156 C.3        1          -0.1840
     12 N1          6.0021    -5.8153    94.0625 N.4        1          -0.5072
     13 H1          5.2807    -6.2945    93.5448 H          1           0.4251
     14 H2          6.5973    -5.3113    93.4221 H          1           0.4297
     15 C10         6.8034    -6.7954    94.8075 C.3        1          -0.0478
     16 C11         5.9010    -7.5596    95.7785 C.3        1           0.1358
     17 O3          4.6514    -7.8421    95.1452 O.3        1          -0.5452
     18 C12         6.5680    -8.8521    96.1727 C.ar       1          -0.1382
     19 C13         7.4137    -8.8973    97.2941 C.ar       1          -0.0336
     20 C14         7.6577    -7.7516    98.0707 C.ar       1          -0.1370
     21 C15         8.4824    -7.8331    99.1503 C.ar       1          -0.0905
     22 C16         9.0906    -9.0375    99.4995 C.ar       1          -0.1163
     23 C17         8.8780   -10.1670    98.7707 C.ar       1          -0.0902
     24 C18         8.0322   -10.1220    97.6491 C.ar       1          -0.0545
     25 C19         7.7873   -11.2678    96.8733 C.ar       1          -0.0760
     26 C20         6.9619   -11.1865    95.7942 C.ar       1          -0.1237
     27 C21         6.3502    -9.9831    95.4477 C.ar       1          -0.0809
     28 C22         3.2571    -5.8095    92.6719 C.ar       1          -0.1520
     29 C23         2.3364    -6.7653    92.2954 C.ar       1          -0.0442
     30 H3         -1.1586    -9.3076    90.0940 H          1           0.0656
     31 H4         -0.6028   -10.2745    91.4813 H          1           0.1100
     32 H5         -1.9092    -9.0841    91.6924 H          1           0.0664
     33 H6          0.4657    -6.8271    95.1276 H          1           0.1490
     34 H7          2.1238    -5.1321    95.7806 H          1           0.1409
     35 H8          4.5353    -3.6474    93.4468 H          1           0.1035
     36 H9          3.7349    -3.4859    95.0284 H          1           0.1268
     37 H10         5.0424    -5.4098    95.8867 H          1           0.1423
     38 H11         7.2616    -4.3037    95.8950 H          1           0.0834
     39 H12         6.7550    -3.2771    94.5321 H          1           0.0854
     40 H13         5.9546    -3.1153    96.1136 H          1           0.1097
     41 H14         7.2616    -7.4960    94.1094 H          1           0.1422
     42 H15         7.5826    -6.2777    95.3668 H          1           0.1443
     43 H16         5.7288    -6.9535    96.6680 H          1           0.1307
     44 H17         4.1660    -7.0545    94.8644 H          1           0.3882
     45 H18         7.1935    -6.8114    97.8119 H          1           0.1180
     46 H19         8.6684    -6.9511    99.7452 H          1           0.1284
     47 H20         9.7408    -9.0749   100.3610 H          1           0.1314
     48 H21         9.3567   -11.0931    99.0527 H          1           0.1352
     49 H22         8.2520   -12.2078    97.1317 H          1           0.1364
     50 H23         6.7757   -12.0685    95.1994 H          1           0.1334
     51 H24         5.6963    -9.9468    94.5889 H          1           0.1257
     52 H25         4.0419    -5.5191    91.9891 H          1           0.1344
     53 H26         2.4000    -7.2233    91.3195 H          1           0.1478
@<TRIPOS>BOND
     1    1    2 1
     2    1   30 1
     3    1   31 1
     4    1   32 1
     5    2    3 1
     6    3    4 2
     7    3    5 1
     8    5   29 ar
     9    5    6 ar
    10    6    7 ar
    11    6   33 1
    12    7    8 ar
    13    7   34 1
    14    8    9 1
    15    8   28 ar
    16    9   10 1
    17    9   35 1
    18    9   36 1
    19   10   11 1
    20   10   12 1
    21   10   37 1
    22   11   38 1
    23   11   39 1
    24   11   40 1
    25   12   13 1
    26   12   14 1
    27   12   15 1
    28   15   16 1
    29   15   41 1
    30   15   42 1
    31   16   17 1
    32   16   18 1
    33   16   43 1
    34   17   44 1
    35   18   27 ar
    36   18   19 ar
    37   19   24 ar
    38   19   20 ar
    39   20   21 ar
    40   20   45 1
    41   21   22 ar
    42   21   46 1
    43   22   23 ar
    44   22   47 1
    45   23   24 ar
    46   23   48 1
    47   24   25 ar
    48   25   26 ar
    49   25   49 1
    50   26   27 ar
    51   26   50 1
    52   27   51 1
    53   28   29 ar
    54   28   52 1
    55   29   53 1
##########                 Name:              T532977
##########          Protonation:                   25
##########               SMILES:   COC(=O)[C@H](c1ccccc1)NC(=O)N[C@H]2CCN(C2)c3cc[nH+]/c(=N\c4ccc(cc4)F)/[nH]3
##########            Long Name:   methyl
##########          FlexRecCode: 1
##########               Number:                  300
##########   Ligand Source File: /raidb/db2/rgc/tcams/tcams-0001052.db2.gz
##########           GlobalRank: 250
##########                 Rank:                    1
##########               Setnum:                   34
##########             Matchnum:                 2678
##########                Cloud:                    1
##########        Electrostatic:           -29.801128
##########        Van der Waals:           -38.779594
##########  Ligand Polar Desolv:             8.427320
########## Ligand Apolar Desolv:            -5.479028
##########      Internal Energy:             0.000000
##########      Receptor Energy: 0.0
########## Receptor Desolvation:             0.000000
########## Receptor Hydrophobic:             0.000000
##########         Total Energy: -65.63
##########        Ligand Charge:             1.000000
##########            Arbitrary:    +999.9990
##########     heavy atom count:   34
##########           pose count:    1
##########        Ligand Energy:             0.000000
# num electro vdwattr vdwrepu polsolv apolsol rdesolv rhydroe totalscore fullpol fullapo
#   1   -0.06   -0.60    0.10    0.03    0.01    0.00    0.00      -0.54    0.11    0.03
#   2    0.49   -0.60    0.05   -0.32    0.06    0.00    0.00      -0.32   -1.43    0.28
#   3   -0.69   -0.68    0.07    0.37   -0.03    0.00    0.00      -0.96    1.75   -0.15
#   4    1.07   -0.81    0.10   -0.24   -0.10    0.00    0.00       0.02   -1.02   -0.41
#   5   -0.28   -0.33    0.01    0.34   -0.05    0.00    0.00      -0.31    1.76   -0.27
#   6    1.10   -0.64    0.08   -1.47    0.38    0.00    0.00      -0.54   -7.33    1.91
#   7   -1.34   -0.40    0.01    1.07   -0.33    0.00    0.00      -0.98    6.79   -2.10
#   8    0.95   -0.26    0.00   -0.36    0.05    0.00    0.00       0.39   -2.86    0.38
#   9    4.45   -0.53    0.02   -2.25    0.42    0.00    0.00       2.12  -11.38    2.13
#  10   -2.12   -0.53    0.06    0.63   -0.08    0.00    0.00      -2.04    2.51   -0.32
#  11    3.32   -0.66    0.04   -0.92   -0.10    0.00    0.00       1.68   -2.66   -0.29
#  12   -1.58   -0.59    0.04    0.62   -0.16    0.00    0.00      -1.68    1.93   -0.50
#  13   11.04   -0.64    0.02   -3.58    0.46    0.00    0.00       7.30  -14.01    1.82
#  14   -1.60   -0.58    0.07    0.73   -0.11    0.00    0.00      -1.50    2.84   -0.44
#  15  -12.17   -0.72    0.02    4.15   -0.57    0.00    0.00      -9.29   14.98   -2.05
#  16   10.77   -1.23    0.21   -3.25   -0.16    0.00    0.00       6.35   -9.13   -0.44
#  17   -9.33   -1.44    0.27    3.80   -0.40    0.00    0.00      -7.10    9.17   -0.97
#  18   12.49   -1.10    0.09   -5.84    0.35    0.00    0.00       6.00  -15.30    0.93
#  19   -9.00   -0.02    0.00    2.80    0.10    0.00    0.00      -6.11   11.44    0.41
#  20   -7.58   -1.15    0.11    4.93   -1.67    0.00    0.00      -5.37   13.71   -4.64
#  21    7.76   -1.01    0.10   -4.49    0.33    0.00    0.00       2.70  -14.29    1.06
#  22    3.51   -2.49    0.89   -4.53    0.89    0.00    0.00      -1.73  -10.43    2.05
#  23   -0.69   -2.48    1.03    0.86   -0.28    0.00    0.00      -1.56    1.80   -0.58
#  24    1.39   -1.70    0.36   -0.86   -0.15    0.00    0.00      -0.97   -2.06   -0.37
#  25    1.79   -1.76    0.35   -0.76   -0.24    0.00    0.00      -0.63   -1.50   -0.47
#  26   -2.31   -3.06    1.25    0.01   -0.20    0.00    0.00      -4.31    0.01   -0.34
#  27    3.14   -2.85    2.25   -0.63   -0.30    0.00    0.00       1.61   -1.00   -0.48
#  28    2.71   -4.25    2.10   -0.87   -0.30    0.00    0.00      -0.60   -1.37   -0.47
#  29    1.05   -3.51    1.41   -0.78   -0.27    0.00    0.00      -2.10   -1.35   -0.47
#  30    0.08   -0.98    0.08   -0.34   -0.13    0.00    0.00      -1.29   -0.92   -0.34
#  31    0.08   -1.30    0.22   -0.43   -0.17    0.00    0.00      -1.59   -1.08   -0.42
#  32    0.03   -3.30    1.61   -0.64   -0.25    0.00    0.00      -2.55   -1.22   -0.47
#  33   -0.04   -4.20    2.09   -0.67   -0.29    0.00    0.00      -3.11   -1.08   -0.47
#  34   -0.03   -3.77    1.83   -0.67   -0.29    0.00    0.00      -2.93   -1.10   -0.47
#  35    0.03   -2.34    0.69   -0.42   -0.22    0.00    0.00      -2.25   -0.86   -0.45
#  36   -0.12   -0.16    0.01    0.05   -0.05    0.00    0.00      -0.26    0.30   -0.28
#  37   -0.12   -0.55    0.45    0.05   -0.07    0.00    0.00      -0.23    0.22   -0.28
#  38   -0.24   -0.08    0.00    0.09   -0.02    0.00    0.00      -0.25    1.24   -0.28
#  39   -0.17   -0.05    0.00    0.04   -0.01    0.00    0.00      -0.19    0.81   -0.26
#  40   -0.65   -0.03    0.00    1.09    0.08    0.00    0.00       0.50    5.99    0.46
#  41   -1.53   -0.01    0.00    1.08    0.07    0.00    0.00      -0.39    8.98    0.57
#  42   -1.15   -0.33    0.17    0.22   -0.05    0.00    0.00      -1.13    1.13   -0.26
#  43   -2.67   -0.26    0.02    0.11   -0.08    0.00    0.00      -2.88    0.41   -0.28
#  44   -2.60   -0.30    0.08    0.37   -0.07    0.00    0.00      -2.52    1.46   -0.28
#  45   -3.13   -0.28    0.05    0.67   -0.08    0.00    0.00      -2.76    2.44   -0.28
#  46   -1.75   -0.17    0.01    0.58   -0.05    0.00    0.00      -1.38    2.87   -0.25
#  47   -1.71   -0.11    0.00    0.52   -0.03    0.00    0.00      -1.33    4.50   -0.26
#  48   -2.68   -0.42    0.20    1.13   -0.08    0.00    0.00      -1.85    4.18   -0.28
#  49   -8.35   -0.45    0.22    2.44   -0.08    0.00    0.00      -6.21    8.08   -0.25
#  50   -9.00   -0.53    0.33    4.33   -0.12    0.00    0.00      -4.99   10.19   -0.28
#  51   -3.76   -0.02    0.00    2.57    0.12    0.00    0.00      -1.09   10.81    0.50
#  52   -0.92   -0.23    0.02    0.84   -0.07    0.00    0.00      -0.36    3.61   -0.28
#  53   -1.84   -0.26    0.02    0.68   -0.09    0.00    0.00      -1.48    2.18   -0.28
#  54   -3.55   -1.67    1.83    0.79   -0.19    0.00    0.00      -2.78    1.17   -0.28
#  55   -2.27   -0.91    0.40    1.00   -0.16    0.00    0.00      -1.95    1.71   -0.28
#  56   -0.13   -0.16    0.02    0.39   -0.05    0.00    0.00       0.06    1.87   -0.24
#  57   -0.05   -1.21    1.43    0.98   -0.15    0.00    0.00       1.00    1.78   -0.28
#  58    0.11   -1.07    0.38    0.99   -0.20    0.00    0.00       0.22    1.42   -0.28
#  59    0.10   -1.24    0.95    0.86   -0.18    0.00    0.00       0.49    1.34   -0.28
#  60   -0.07   -0.93    0.92    0.54   -0.12    0.00    0.00       0.33    1.25   -0.28

@<TRIPOS>MOLECULE
          T532977        25
   60    63     0     0     0



@<TRIPOS>ATOM
      1 C1          3.0914    -6.2847    85.7641 C.3        1           0.0334
      2 O1          1.7888    -6.4850    86.3161 O.3        1          -0.3445
      3 C2          1.6441    -6.2645    87.6322 C.2        1           0.4538
      4 O2          2.5921    -5.9128    88.2936 O.2        1          -0.4963
      5 C3          0.2992    -6.4553    88.2848 C.3        1           0.2239
      6 N1          0.4033    -6.1541    89.7148 N.am       1          -0.7178
      7 C4          0.1120    -7.1032    90.6263 C.2        1           0.7187
      8 O3         -0.2372    -8.2093    90.2618 O.2        1          -0.5739
      9 N2          0.2077    -6.8261    91.9418 N.am       1          -0.7367
     10 C5          0.6282    -5.4933    92.3809 C.3        1           0.1583
     11 C6          0.0917    -5.1738    93.7826 C.3        1          -0.1466
     12 C7          0.9744    -6.1431    94.5925 C.3        1           0.0705
     13 N3          2.3123    -5.9260    94.0173 N.pl3      1          -0.5525
     14 C8          2.1316    -5.4461    92.6468 C.3        1           0.0872
     15 C9          3.5103    -6.1349    94.6512 C.2        1           0.5714
     16 C10         4.6217    -5.3758    94.3247 C.2        1          -0.3296
     17 C11         5.8218    -5.6105    94.9847 C.2        1           0.2884
     18 N4          5.9013    -6.5459    95.9113 N.pl3      1          -0.5940
     19 H1          6.7462    -6.6981    96.3629 H          1           0.4525
     20 C12         4.8389    -7.2879    96.2397 C.2        1           0.5683
     21 N5          3.6266    -7.0925    95.6205 N.pl3      1          -0.5918
     22 N6          4.9540    -8.2187    97.1754 N.2        1          -0.5086
     23 C13         6.1155    -8.3322    97.8873 C.ar       1           0.0658
     24 C14         7.1426    -9.1604    97.4267 C.ar       1          -0.1399
     25 C15         8.3121    -9.2707    98.1496 C.ar       1          -0.1293
     26 C16         8.4697    -8.5626    99.3302 C.ar       1           0.1101
     27 F1          9.6176    -8.6749   100.0337 F          1          -0.1262
     28 C17         7.4553    -7.7395    99.7920 C.ar       1          -0.1293
     29 C18         6.2830    -7.6164    99.0755 C.ar       1          -0.0705
     30 C19        -0.7043    -5.5287    87.6480 C.ar       1          -0.1073
     31 C20        -2.0378    -5.8885    87.5904 C.ar       1          -0.1105
     32 C21        -2.9583    -5.0387    87.0062 C.ar       1          -0.1146
     33 C22        -2.5456    -3.8288    86.4803 C.ar       1          -0.1035
     34 C23        -1.2121    -3.4686    86.5388 C.ar       1          -0.1122
     35 C24        -0.2923    -4.3166    87.1266 C.ar       1          -0.0861
     36 H2          3.0696    -6.4967    84.6950 H          1           0.0616
     37 H3          3.3985    -5.2509    85.9232 H          1           0.0620
     38 H4          3.7999    -6.9534    86.2527 H          1           0.1074
     39 H5         -0.0251    -7.4876    88.1537 H          1           0.1386
     40 H6          0.6817    -5.2716    90.0056 H          1           0.4056
     41 H7         -0.0019    -7.5092    92.5978 H          1           0.4021
     42 H8          0.3297    -4.7303    91.6619 H          1           0.1254
     43 H9          0.2805    -4.1360    94.0569 H          1           0.1136
     44 H10        -0.9654    -5.4238    93.8735 H          1           0.0944
     45 H11         0.9625    -5.8833    95.6511 H          1           0.1104
     46 H12         0.6529    -7.1740    94.4440 H          1           0.0991
     47 H13         2.6577    -6.0966    91.9480 H          1           0.1055
     48 H14         2.4978    -4.4236    92.5549 H          1           0.1141
     49 H15         4.5565    -4.6105    93.5654 H          1           0.1929
     50 H16         6.6943    -5.0240    94.7375 H          1           0.2134
     51 H17         2.8598    -7.6329    95.8673 H          1           0.4530
     52 H18         7.0208    -9.7131    96.5069 H          1           0.1341
     53 H19         9.1066    -9.9106    97.7950 H          1           0.1483
     54 H20         7.5844    -7.1899   100.7127 H          1           0.1511
     55 H21         5.4947    -6.9713    99.4343 H          1           0.1454
     56 H22        -2.3603    -6.8338    88.0013 H          1           0.1196
     57 H23        -4.0000    -5.3200    86.9605 H          1           0.1285
     58 H24        -3.2646    -3.1651    86.0233 H          1           0.1291
     59 H25        -0.8895    -2.5235    86.1276 H          1           0.1320
     60 H26         0.7489    -4.0336    87.1757 H          1           0.1323
@<TRIPOS>BOND
     1    1    2 1
     2    1   36 1
     3    1   37 1
     4    1   38 1
     5    2    3 1
     6    3    4 2
     7    3    5 1
     8    5    6 1
     9    5   30 1
    10    5   39 1
    11    6    7 am
    12    6   40 1
    13    7    8 2
    14    7    9 am
    15    9   10 1
    16    9   41 1
    17   10   14 1
    18   10   11 1
    19   10   42 1
    20   11   12 1
    21   11   43 1
    22   11   44 1
    23   12   13 1
    24   12   45 1
    25   12   46 1
    26   13   14 1
    27   13   15 1
    28   14   47 1
    29   14   48 1
    30   15   21 1
    31   15   16 2
    32   16   17 1
    33   16   49 1
    34   17   18 2
    35   17   50 1
    36   18   19 1
    37   18   20 1
    38   20   21 1
    39   20   22 2
    40   21   51 1
    41   22   23 1
    42   23   29 ar
    43   23   24 ar
    44   24   25 ar
    45   24   52 1
    46   25   26 ar
    47   25   53 1
    48   26   27 1
    49   26   28 ar
    50   28   29 ar
    51   28   54 1
    52   29   55 1
    53   30   35 ar
    54   30   31 ar
    55   31   32 ar
    56   31   56 1
    57   32   33 ar
    58   32   57 1
    59   33   34 ar
    60   33   58 1
    61   34   35 ar
    62   34   59 1
    63   35   60 1
##########                 Name:              T538648
##########          Protonation:                   21
##########               SMILES:   COc1ccc2c(n1)c(c(cn2)F)CC[NH+]3C[C@@H]([C@@H](C3)O)C[NH2+]Cc4ccccc4
##########            Long Name:   1,5-naphthyridin-4-yl)ethyl]-4-hydroxy-pyrrolidin-1-ium-3-yl]methyl]ammonium
##########          FlexRecCode: 1
##########               Number:                  138
##########   Ligand Source File: /raidb/db2/rgc/tcams/tcams-0001835.db2.gz
##########           GlobalRank: 251
##########                 Rank:                    1
##########               Setnum:                  131
##########             Matchnum:                  683
##########                Cloud:                    1
##########        Electrostatic:           -54.111027
##########        Van der Waals:           -22.200790
##########  Ligand Polar Desolv:            12.439222
########## Ligand Apolar Desolv:            -1.738127
##########      Internal Energy:             0.000000
##########      Receptor Energy: 0.0
########## Receptor Desolvation:             0.000000
########## Receptor Hydrophobic:             0.000000
##########         Total Energy: -65.61
##########        Ligand Charge:             2.000000
##########            Arbitrary:    +999.9990
##########     heavy atom count:   30
##########           pose count:    1
##########        Ligand Energy:             0.000000
# num electro vdwattr vdwrepu polsolv apolsol rdesolv rhydroe totalscore fullpol fullapo
#   1   -0.23   -0.33    0.01    0.06    0.01    0.00    0.00      -0.49    0.32    0.03
#   2    0.63   -0.44    0.02   -1.45    0.18    0.00    0.00      -1.06   -7.37    0.90
#   3   -0.58   -0.37    0.01    1.17   -0.10    0.00    0.00       0.12    7.35   -0.66
#   4    0.21   -0.38    0.01   -0.54   -0.08    0.00    0.00      -0.78   -3.18   -0.46
#   5   -0.01   -0.44    0.02   -0.15   -0.09    0.00    0.00      -0.67   -0.81   -0.48
#   6   -0.05   -0.53    0.02   -0.08   -0.16    0.00    0.00      -0.78   -0.35   -0.73
#   7    0.48   -0.97    0.15   -1.98    0.51    0.00    0.00      -1.82   -7.69    1.99
#   8   -0.14   -1.54    0.56    0.34   -0.27    0.00    0.00      -1.06    1.20   -0.97
#   9   -0.20   -1.99    1.55    0.48   -0.09    0.00    0.00      -0.25    1.72   -0.34
#  10    0.32   -1.60    1.56   -0.84   -0.14    0.00    0.00      -0.71   -2.63   -0.45
#  11    0.21   -1.18    0.35   -0.15   -0.09    0.00    0.00      -0.86   -0.61   -0.36
#  12    0.47   -1.02    0.25   -1.16   -0.07    0.00    0.00      -1.52   -3.82   -0.22
#  13    0.06   -0.36    0.02    0.22   -0.07    0.00    0.00      -0.13    1.08   -0.32
#  14   11.02   -1.06    0.36   -4.27    0.11    0.00    0.00       6.16  -16.98    0.45
#  15  -19.21   -0.06    0.00    6.38    0.16    0.00    0.00     -12.73   22.04    0.56
#  16    1.01   -0.46    0.06   -0.60   -0.08    0.00    0.00      -0.07   -2.95   -0.37
#  17   -1.80   -0.69    0.14    0.96   -0.03    0.00    0.00      -1.42    3.91   -0.14
#  18   22.64   -3.89    5.87   -9.53    0.54    0.00    0.00      15.63  -27.21    1.55
#  19    2.71   -0.42    0.04   -1.22   -0.04    0.00    0.00       1.07   -5.68   -0.19
#  20   -0.06   -0.52    0.04    0.11   -0.09    0.00    0.00      -0.52    0.42   -0.34
#  21    7.95   -0.74    0.06   -7.21    0.22    0.00    0.00       0.27  -24.43    0.73
#  22   -3.20   -0.01    0.00    3.80    0.09    0.00    0.00       0.67   23.68    0.57
#  23   -7.89   -0.02    0.00    4.51    0.10    0.00    0.00      -3.31   22.65    0.51
#  24   -0.80   -0.72    0.05    1.38   -0.16    0.00    0.00      -0.26    3.59   -0.42
#  25    2.32   -1.35    0.12   -1.55   -0.16    0.00    0.00      -0.61   -3.64   -0.37
#  26    1.55   -1.93    0.26   -1.50   -0.24    0.00    0.00      -1.88   -2.78   -0.45
#  27    2.17   -2.44    0.56   -2.46   -0.27    0.00    0.00      -2.44   -4.24   -0.47
#  28    1.02   -2.14    0.82   -1.93   -0.25    0.00    0.00      -2.47   -3.69   -0.47
#  29    1.00   -1.63    0.39   -1.84   -0.21    0.00    0.00      -2.29   -4.21   -0.47
#  30    0.76   -1.38    0.17   -1.01   -0.17    0.00    0.00      -1.63   -2.74   -0.45
#  31   -0.03   -0.66    0.15   -0.10   -0.11    0.00    0.00      -0.75   -0.43   -0.47
#  32   -0.24   -0.59    0.05    0.59   -0.14    0.00    0.00      -0.33    3.04   -0.73
#  33    0.87   -0.47    0.04   -1.86    0.41    0.00    0.00      -1.01  -11.53    2.54
#  34   -0.47   -0.14    0.01    0.68   -0.04    0.00    0.00       0.04    4.54   -0.28
#  35   -0.50   -0.06    0.00    0.18   -0.02    0.00    0.00      -0.40    3.01   -0.28
#  36   -0.61   -0.12    0.01    0.27   -0.03    0.00    0.00      -0.49    2.24   -0.28
#  37   -0.24   -0.09    0.00    0.31   -0.03    0.00    0.00      -0.04    2.83   -0.28
#  38   -0.15   -0.12    0.01    0.27   -0.04    0.00    0.00      -0.03    2.04   -0.28
#  39   -0.30   -0.38    0.13    0.88   -0.08    0.00    0.00       0.26    3.26   -0.28
#  40   -1.74   -0.79    0.69    1.90   -0.09    0.00    0.00      -0.02    5.02   -0.23
#  41   -1.07   -0.39    0.19    1.28   -0.07    0.00    0.00      -0.06    4.70   -0.27
#  42   -1.17   -0.05    0.00    0.27   -0.01    0.00    0.00      -0.96    5.95   -0.28
#  43   -1.23   -0.07    0.00    0.45   -0.02    0.00    0.00      -0.87    6.20   -0.27
#  44   -2.06   -0.05    0.00    0.32   -0.01    0.00    0.00      -1.80    6.95   -0.26
#  45   -3.76   -0.16    0.02    1.15   -0.05    0.00    0.00      -2.80    6.94   -0.28
#  46   -2.03   -0.17    0.03    1.08   -0.04    0.00    0.00      -1.13    7.20   -0.28
#  47  -29.51   -0.50    0.95    7.53    0.48    0.00    0.00     -21.03   19.13    1.23
#  48   -1.45   -0.10    0.01    0.95   -0.03    0.00    0.00      -0.62    9.58   -0.28
#  49   -5.44   -0.29    0.10    1.52   -0.05    0.00    0.00      -4.15    7.62   -0.25
#  50   -2.65   -0.12    0.00    0.97   -0.03    0.00    0.00      -1.82    9.23   -0.28
#  51   -3.05   -0.29    0.05    2.14   -0.08    0.00    0.00      -1.21    7.74   -0.28
#  52   -1.93   -0.22    0.01    2.19   -0.07    0.00    0.00      -0.01    8.26   -0.28
#  53   -2.24   -0.59    0.29    3.45   -0.14    0.00    0.00       0.77    6.73   -0.28
#  54   -3.56   -0.86    0.50    1.02   -0.16    0.00    0.00      -3.07    1.74   -0.28
#  55   -1.74   -0.48    0.19    0.33   -0.13    0.00    0.00      -1.84    0.70   -0.28
#  56   -1.00   -0.25    0.02    0.50   -0.08    0.00    0.00      -0.80    1.82   -0.28
#  57   -0.59   -0.25    0.03    1.56   -0.07    0.00    0.00       0.68    6.66   -0.28
#  58   -6.02   -0.46    0.28    2.01   -0.06    0.00    0.00      -4.25    8.43   -0.27
#  59   -2.59   -0.09    0.00    0.67   -0.02    0.00    0.00      -2.04    7.63   -0.26

@<TRIPOS>MOLECULE
          T538648        21
   59    62     0     0     0



@<TRIPOS>ATOM
      1 C1          0.3153    -6.8664    91.9415 C.3        1           0.0397
      2 O1         -0.5984    -7.2556    90.9139 O.3        1          -0.2896
      3 C2         -0.1992    -7.0678    89.6320 C.ar       1           0.3792
      4 C3         -1.0601    -7.4274    88.5870 C.ar       1          -0.1600
      5 C4         -0.6735    -7.2443    87.2935 C.ar       1           0.0085
      6 C5          0.6003    -6.6905    87.0468 C.ar       1           0.0417
      7 N1          1.0327    -6.4875    85.8002 N.ar       1          -0.4000
      8 C6          2.2148    -5.9729    85.5637 C.ar       1           0.0977
      9 C7          3.0761    -5.6133    86.6018 C.ar       1           0.1009
     10 F1          4.2878    -5.0849    86.3229 F          1          -0.1163
     11 C8          2.6916    -5.7960    87.9013 C.ar       1          -0.1007
     12 C9          3.6039    -5.4149    89.0387 C.3        1          -0.0897
     13 C10         4.4859    -6.6095    89.4071 C.3        1          -0.0045
     14 N2          5.3753    -6.2382    90.5160 N.4        1          -0.3847
     15 H1          5.7132    -5.2971    90.3805 H          1           0.4364
     16 C11         6.5184    -7.1741    90.5715 C.3        1          -0.0440
     17 C12         6.8113    -7.3513    92.0823 C.3        1           0.0720
     18 O2          7.5876    -6.2616    92.5846 O.3        1          -0.5576
     19 C13         5.3809    -7.3377    92.6825 C.3        1          -0.1295
     20 C14         5.4090    -6.8635    94.1369 C.3        1           0.0027
     21 N3          6.2485    -7.7701    94.9314 N.4        1          -0.5074
     22 H2          5.8684    -8.7039    94.8894 H          1           0.4284
     23 H3          7.1866    -7.7719    94.5601 H          1           0.4282
     24 C15         6.2755    -7.3148    96.3278 C.3        1           0.0497
     25 C16         7.1367    -8.2449    97.1429 C.ar       1          -0.1771
     26 C17         7.8168    -7.7670    98.2475 C.ar       1          -0.0925
     27 C18         8.6067    -8.6202    98.9952 C.ar       1          -0.1127
     28 C19         8.7162    -9.9513    98.6386 C.ar       1          -0.0758
     29 C20         8.0354   -10.4292    97.5345 C.ar       1          -0.1132
     30 C21         7.2421    -9.5771    96.7894 C.ar       1          -0.0923
     31 C22         4.6404    -6.3230    91.7912 C.3        1           0.0010
     32 C23         1.4208    -6.3490    88.1487 C.ar       1           0.1554
     33 N4          0.9857    -6.5470    89.3970 N.ar       1          -0.5577
     34 H4         -0.1267    -7.0698    92.9168 H          1           0.0499
     35 H5          1.2415    -7.4317    91.8374 H          1           0.1056
     36 H6          0.5282    -5.8010    91.8540 H          1           0.0621
     37 H7         -2.0295    -7.8497    88.8068 H          1           0.1649
     38 H8         -1.3261    -7.5169    86.4772 H          1           0.1697
     39 H9          2.5301    -5.8240    84.5416 H          1           0.1864
     40 H10         4.2334    -4.5784    88.7352 H          1           0.1112
     41 H11         3.0059    -5.1248    89.9026 H          1           0.1030
     42 H12         3.8565    -7.4461    89.7108 H          1           0.1373
     43 H13         5.0840    -6.8997    88.5434 H          1           0.1359
     44 H14         6.2487    -8.1299    90.1226 H          1           0.1510
     45 H15         7.3838    -6.7466    90.0648 H          1           0.1495
     46 H16         7.3073    -8.3027    92.2749 H          1           0.1213
     47 H17         7.1613    -5.3988    92.4902 H          1           0.4170
     48 H18         4.9227    -8.3240    92.6090 H          1           0.1421
     49 H19         5.8196    -5.8547    94.1823 H          1           0.1524
     50 H20         4.3955    -6.8617    94.5381 H          1           0.1470
     51 H21         6.6861    -6.3061    96.3732 H          1           0.1412
     52 H22         5.2620    -7.3130    96.7291 H          1           0.1413
     53 H23         7.7313    -6.7271    98.5260 H          1           0.1315
     54 H24         9.1387    -8.2467    99.8577 H          1           0.1391
     55 H25         9.3340   -10.6176    99.2223 H          1           0.1395
     56 H26         8.1212   -11.4691    97.2558 H          1           0.1387
     57 H27         6.7072    -9.9514    95.9290 H          1           0.1309
     58 H28         4.6262    -5.3471    92.2766 H          1           0.1469
     59 H29         3.6211    -6.6642    91.6099 H          1           0.1488
@<TRIPOS>BOND
     1    1    2 1
     2    1   34 1
     3    1   35 1
     4    1   36 1
     5    2    3 1
     6    3   33 ar
     7    3    4 ar
     8    4    5 ar
     9    4   37 1
    10    5    6 ar
    11    5   38 1
    12    6   32 ar
    13    6    7 ar
    14    7    8 ar
    15    8    9 ar
    16    8   39 1
    17    9   10 1
    18    9   11 ar
    19   11   12 1
    20   11   32 ar
    21   12   13 1
    22   12   40 1
    23   12   41 1
    24   13   14 1
    25   13   42 1
    26   13   43 1
    27   14   15 1
    28   14   31 1
    29   14   16 1
    30   16   17 1
    31   16   44 1
    32   16   45 1
    33   17   18 1
    34   17   19 1
    35   17   46 1
    36   18   47 1
    37   19   20 1
    38   19   31 1
    39   19   48 1
    40   20   21 1
    41   20   49 1
    42   20   50 1
    43   21   22 1
    44   21   23 1
    45   21   24 1
    46   24   25 1
    47   24   51 1
    48   24   52 1
    49   25   30 ar
    50   25   26 ar
    51   26   27 ar
    52   26   53 1
    53   27   28 ar
    54   27   54 1
    55   28   29 ar
    56   28   55 1
    57   29   30 ar
    58   29   56 1
    59   30   57 1
    60   31   58 1
    61   31   59 1
    62   32   33 ar
##########                 Name:              T325622
##########          Protonation:                   94
##########               SMILES:   c1ccc(cc1)COc2ccccc2C[NH2+]C[C@@H](c3cccc(c3)I)O
##########            Long Name:   (2-benzyloxyphenyl)methyl-[(2R)-2-hydroxy-2-(3-iodophenyl)ethyl]ammonium
##########          FlexRecCode: 1
##########               Number:                  388
##########   Ligand Source File: /raidb/db2/rgc/tcams/tcams-0000493.db2.gz
##########           GlobalRank: 252
##########                 Rank:                    1
##########               Setnum:                  261
##########             Matchnum:                 1755
##########                Cloud:                    1
##########        Electrostatic:           -45.283165
##########        Van der Waals:           -24.934542
##########  Ligand Polar Desolv:             7.346598
########## Ligand Apolar Desolv:            -2.727314
##########      Internal Energy:             0.000000
##########      Receptor Energy: 0.0
########## Receptor Desolvation:             0.000000
########## Receptor Hydrophobic:             0.000000
##########         Total Energy: -65.6
##########        Ligand Charge:             1.000000
##########            Arbitrary:    +999.9990
##########     heavy atom count:   26
##########           pose count:    1
##########        Ligand Energy:             0.000000
# num electro vdwattr vdwrepu polsolv apolsol rdesolv rhydroe totalscore fullpol fullapo
#   1   19.35   -1.81    1.20   -4.34    0.48    0.00    0.00      14.87  -14.48    1.61
#   2   -4.25   -0.94    0.25    1.35   -0.05    0.00    0.00      -3.65    3.87   -0.15
#   3    1.19   -0.59    0.05   -0.16   -0.11    0.00    0.00       0.38   -0.55   -0.38
#   4   18.80   -1.45    0.72   -5.33    0.24    0.00    0.00      12.98  -16.13    0.73
#   5  -22.88   -0.08    0.01    5.68    0.20    0.00    0.00     -17.07   16.14    0.57
#   6  -15.53   -0.02    0.00    2.79    0.10    0.00    0.00     -12.66   14.19    0.52
#   7   -1.51   -0.76    0.10    0.71   -0.12    0.00    0.00      -1.58    2.24   -0.39
#   8    3.31   -0.55    0.01   -0.76   -0.08    0.00    0.00       1.94   -3.61   -0.37
#   9    0.92   -0.71    0.03   -0.25   -0.12    0.00    0.00      -0.13   -0.91   -0.45
#  10    1.94   -1.04    0.10   -1.10   -0.16    0.00    0.00      -0.25   -3.22   -0.47
#  11    0.13   -1.02    0.15   -0.46   -0.14    0.00    0.00      -1.35   -1.53   -0.47
#  12    0.55   -0.63    0.08   -0.73   -0.08    0.00    0.00      -0.83   -3.80   -0.42
#  13   -1.60   -0.43    0.01    0.43   -0.05    0.00    0.00      -1.63    2.64   -0.31
#  14    4.67   -0.33    0.01   -0.98    0.14    0.00    0.00       3.49   -5.83    0.81
#  15   -0.84   -0.17    0.00    0.19   -0.01    0.00    0.00      -0.82    1.83   -0.10
#  16    1.08   -0.40    0.02   -0.24   -0.07    0.00    0.00       0.38   -1.42   -0.39
#  17    0.30   -0.37    0.01   -0.20   -0.06    0.00    0.00      -0.32   -1.39   -0.45
#  18    0.37   -0.73    0.09   -0.37   -0.10    0.00    0.00      -0.73   -1.81   -0.47
#  19    0.54   -1.55    0.69   -0.44   -0.13    0.00    0.00      -0.89   -1.58   -0.47
#  20    2.96   -2.01    0.99   -0.53   -0.14    0.00    0.00       1.25   -1.73   -0.47
#  21    2.17   -1.07    0.20   -0.38   -0.11    0.00    0.00       0.80   -1.49   -0.45
#  22    2.49   -1.11    0.14   -0.66   -0.11    0.00    0.00       0.75   -2.03   -0.34
#  23    1.51   -1.37    0.17   -0.64   -0.18    0.00    0.00      -0.51   -1.59   -0.44
#  24    1.38   -1.44    0.15   -0.89   -0.21    0.00    0.00      -1.02   -1.97   -0.47
#  25    0.55   -1.42    0.19   -0.55   -0.17    0.00    0.00      -1.40   -1.48   -0.46
#  26    0.62   -1.23    0.16   -0.47   -0.10    0.00    0.00      -1.01   -1.44   -0.30
#  27    0.07   -6.77    4.15   -0.36   -0.55    0.00    0.00      -3.47   -1.04   -1.57
#  28    0.73   -1.05    0.14   -0.39   -0.12    0.00    0.00      -0.69   -1.40   -0.44
#  29  -20.60   -0.12    0.04    3.17    0.28    0.00    0.00     -17.23   11.18    1.00
#  30   -5.12   -0.43    0.16    1.78   -0.11    0.00    0.00      -3.73    4.42   -0.28
#  31   -2.30   -0.12    0.00    0.56   -0.03    0.00    0.00      -1.88    5.34   -0.28
#  32   -3.96   -0.20    0.01    1.20   -0.05    0.00    0.00      -3.00    6.33   -0.28
#  33   -3.81   -0.25    0.02    1.14   -0.07    0.00    0.00      -2.97    4.42   -0.27
#  34   -3.43   -0.47    0.25    1.92   -0.08    0.00    0.00      -1.81    6.66   -0.28
#  35   -3.52   -0.19    0.01    0.95   -0.05    0.00    0.00      -2.80    5.19   -0.28
#  36   -2.78   -0.39    0.11    0.66   -0.10    0.00    0.00      -2.50    1.84   -0.28
#  37   -0.17   -0.29    0.06    0.34   -0.08    0.00    0.00      -0.14    1.21   -0.28
#  38   -0.07   -0.12    0.01    0.19   -0.02    0.00    0.00       0.00    1.71   -0.22
#  39   -0.42   -0.04    0.00    0.04   -0.01    0.00    0.00      -0.43    0.99   -0.26
#  40   -0.33   -0.04    0.00    0.06   -0.01    0.00    0.00      -0.31    1.63   -0.27
#  41   -0.22   -0.04    0.00    0.12   -0.01    0.00    0.00      -0.16    2.91   -0.28
#  42   -0.34   -0.12    0.01    0.22   -0.03    0.00    0.00      -0.26    2.00   -0.28
#  43   -0.65   -0.36    0.14    0.32   -0.07    0.00    0.00      -0.62    1.38   -0.28
#  44   -5.32   -0.74    0.48    0.46   -0.10    0.00    0.00      -5.22    1.34   -0.28
#  45   -4.20   -0.32    0.12    0.36   -0.06    0.00    0.00      -4.10    1.78   -0.28
#  46   -2.48   -0.44    0.27    1.48   -0.08    0.00    0.00      -1.25    4.49   -0.23
#  47   -2.20   -0.34    0.03    0.82   -0.12    0.00    0.00      -1.80    1.96   -0.28
#  48   -0.98   -0.35    0.09    0.20   -0.07    0.00    0.00      -1.12    0.75   -0.28
#  49   -1.37   -0.14    0.01    0.45   -0.04    0.00    0.00      -1.09    3.14   -0.28

@<TRIPOS>MOLECULE
          T325622        94
   49    51     0     0     0



@<TRIPOS>ATOM
      1 O1          6.7196    -6.5530    93.0491 O.3        1          -0.5449
      2 C1          6.3206    -6.2795    94.3938 C.3        1           0.1363
      3 C2          4.8121    -6.0278    94.4370 C.3        1          -0.0433
      4 N1          4.4147    -5.2322    93.2677 N.4        1          -0.5039
      5 H1          4.9034    -4.3496    93.2796 H          1           0.4267
      6 H2          4.6479    -5.7345    92.4242 H          1           0.4326
      7 C3          2.9663    -4.9907    93.3092 C.3        1           0.0569
      8 C4          2.2364    -6.3091    93.2913 C.ar       1          -0.2007
      9 C5          1.1787    -6.5255    94.1534 C.ar       1          -0.0511
     10 C6          0.5090    -7.7348    94.1379 C.ar       1          -0.1510
     11 C7          0.8956    -8.7306    93.2596 C.ar       1          -0.0410
     12 C8          1.9522    -8.5190    92.3955 C.ar       1          -0.2050
     13 C9          2.6225    -7.3042    92.4054 C.ar       1           0.1554
     14 O2          3.6587    -7.0916    91.5523 O.3        1          -0.3208
     15 C10         3.6167    -7.7742    90.2976 C.3        1           0.1039
     16 C11         4.3247    -6.9502    89.2533 C.ar       1          -0.1097
     17 C12         3.9259    -7.0188    87.9314 C.ar       1          -0.0980
     18 C13         4.5753    -6.2629    86.9736 C.ar       1          -0.1212
     19 C14         5.6231    -5.4384    87.3370 C.ar       1          -0.1010
     20 C15         6.0211    -5.3685    88.6593 C.ar       1          -0.1194
     21 C16         5.3690    -6.1212    89.6180 C.ar       1          -0.0940
     22 C17         6.6582    -7.4598    95.2678 C.ar       1          -0.1370
     23 C18         6.9623    -7.2668    96.6028 C.ar       1          -0.0885
     24 C19         7.2720    -8.3491    97.4047 C.ar       1          -0.1047
     25 C20         7.2775    -9.6249    96.8725 C.ar       1          -0.0668
     26 C21         6.9730    -9.8183    95.5375 C.ar       1          -0.0982
     27 I1          6.9812   -11.7516    94.7304 I          1          -0.0188
     28 C22         6.6584    -8.7356    94.7364 C.ar       1          -0.0687
     29 H3          6.5323    -5.8346    92.4295 H          1           0.3884
     30 H4          6.8469    -5.3966    94.7566 H          1           0.1331
     31 H5          4.2842    -6.9814    94.4242 H          1           0.1374
     32 H6          4.5602    -5.4852    95.3482 H          1           0.1452
     33 H7          2.7143    -4.4482    94.2203 H          1           0.1378
     34 H8          2.6715    -4.4004    92.4415 H          1           0.1376
     35 H9          0.8748    -5.7494    94.8402 H          1           0.1400
     36 H10        -0.3171    -7.9023    94.8130 H          1           0.1386
     37 H11         0.3712    -9.6747    93.2497 H          1           0.1391
     38 H12         2.2537    -9.2970    91.7097 H          1           0.1403
     39 H13         4.1104    -8.7413    90.3934 H          1           0.0800
     40 H14         2.5789    -7.9241    90.0002 H          1           0.0797
     41 H15         3.1073    -7.6635    87.6472 H          1           0.1241
     42 H16         4.2642    -6.3171    85.9407 H          1           0.1289
     43 H17         6.1310    -4.8478    86.5889 H          1           0.1290
     44 H18         6.8400    -4.7242    88.9436 H          1           0.1293
     45 H19         5.6776    -6.0641    90.6514 H          1           0.1249
     46 H20         6.9580    -6.2703    97.0189 H          1           0.1293
     47 H21         7.5101    -8.1980    98.4473 H          1           0.1407
     48 H22         7.5199   -10.4705    97.4990 H          1           0.1382
     49 H23         6.4169    -8.8866    93.6946 H          1           0.1342
@<TRIPOS>BOND
     1    1    2 1
     2    1   29 1
     3    2    3 1
     4    2   22 1
     5    2   30 1
     6    3    4 1
     7    3   31 1
     8    3   32 1
     9    4    5 1
    10    4    6 1
    11    4    7 1
    12    7    8 1
    13    7   33 1
    14    7   34 1
    15    8   13 ar
    16    8    9 ar
    17    9   10 ar
    18    9   35 1
    19   10   11 ar
    20   10   36 1
    21   11   12 ar
    22   11   37 1
    23   12   13 ar
    24   12   38 1
    25   13   14 1
    26   14   15 1
    27   15   16 1
    28   15   39 1
    29   15   40 1
    30   16   21 ar
    31   16   17 ar
    32   17   18 ar
    33   17   41 1
    34   18   19 ar
    35   18   42 1
    36   19   20 ar
    37   19   43 1
    38   20   21 ar
    39   20   44 1
    40   21   45 1
    41   22   28 ar
    42   22   23 ar
    43   23   24 ar
    44   23   46 1
    45   24   25 ar
    46   24   47 1
    47   25   26 ar
    48   25   48 1
    49   26   27 1
    50   26   28 ar
    51   28   49 1
##########                 Name:              T525312
##########          Protonation:                   77
##########               SMILES:   c1ccc(cc1)C[C@H](C(=O)NCC[NH+]2CCCC2)NC(=O)c3ccc(c(c3)c4ccc(c(c4)Cl)Cl)O
##########            Long Name:   lidin-1-ium-1-ylethylamino)ethyl]-3-(3,4-dichlorophenyl)-4-hydroxy-benzamide
##########          FlexRecCode: 1
##########               Number:                   60
##########   Ligand Source File: /raidb/db2/rgc/tcams/tcams-0000069.db2.gz
##########           GlobalRank: 253
##########                 Rank:                    1
##########               Setnum:                  189
##########             Matchnum:                  708
##########                Cloud:                    1
##########        Electrostatic:           -44.372051
##########        Van der Waals:           -26.433134
##########  Ligand Polar Desolv:             8.957586
########## Ligand Apolar Desolv:            -3.745340
##########      Internal Energy:             0.000000
##########      Receptor Energy: 0.0
########## Receptor Desolvation:             0.000000
########## Receptor Hydrophobic:             0.000000
##########         Total Energy: -65.59
##########        Ligand Charge:             1.000000
##########            Arbitrary:    +999.9990
##########     heavy atom count:   36
##########           pose count:    1
##########        Ligand Energy:             0.000000
# num electro vdwattr vdwrepu polsolv apolsol rdesolv rhydroe totalscore fullpol fullapo
#   1    0.27   -0.07    0.00   -0.14    0.04    0.00    0.00       0.11   -3.40    1.04
#   2   -0.12   -0.15    0.01    0.06   -0.02    0.00    0.00      -0.22    0.94   -0.31
#   3    0.11   -0.09    0.00   -0.05   -0.02    0.00    0.00      -0.05   -1.37   -0.46
#   4    0.12   -0.13    0.00   -0.02   -0.02    0.00    0.00      -0.05   -0.40   -0.44
#   5    0.63   -0.33    0.01   -0.15   -0.05    0.00    0.00       0.11   -1.19   -0.41
#   6    0.16   -0.96    0.42   -0.04   -0.08    0.00    0.00      -0.50   -0.21   -0.42
#   7    0.10   -0.67    0.26   -0.08   -0.05    0.00    0.00      -0.43   -0.61   -0.38
#   8    0.04   -1.87    3.08   -0.02   -0.06    0.00    0.00       1.18   -0.10   -0.36
#   9    0.11   -1.47    1.42   -0.07   -0.07    0.00    0.00      -0.09   -0.42   -0.44
#  10    0.09   -1.44    0.82   -0.07   -0.09    0.00    0.00      -0.69   -0.36   -0.46
#  11    0.03   -1.54    0.65   -0.04   -0.08    0.00    0.00      -0.98   -0.15   -0.29
#  12    0.03   -4.03    3.56   -0.03   -0.28    0.00    0.00      -0.74   -0.09   -0.95
#  13    0.03   -1.31    0.40   -0.04   -0.09    0.00    0.00      -1.02   -0.14   -0.30
#  14    0.02   -3.25    2.06   -0.05   -0.36    0.00    0.00      -1.58   -0.12   -0.95
#  15    0.14   -1.50    1.31   -0.07   -0.09    0.00    0.00      -0.21   -0.34   -0.40
#  16   -3.38   -0.45    0.02    0.78   -0.08    0.00    0.00      -3.12    4.45   -0.48
#  17    3.08   -0.58    0.12   -0.41    0.05    0.00    0.00       2.25   -2.70    0.32
#  18    4.38   -0.78    0.07   -2.08    0.49    0.00    0.00       2.07   -8.32    1.95
#  19   -0.90   -0.66    0.11    0.54   -0.07    0.00    0.00      -0.98    2.01   -0.26
#  20    0.40   -0.92    0.13   -0.46   -0.08    0.00    0.00      -0.93   -1.25   -0.22
#  21    0.59   -1.19    0.10   -0.26   -0.09    0.00    0.00      -0.84   -0.69   -0.23
#  22    1.03   -1.37    0.15   -0.39   -0.14    0.00    0.00      -0.71   -0.88   -0.32
#  23    1.32   -1.80    0.33   -0.32   -0.23    0.00    0.00      -0.69   -0.64   -0.47
#  24    1.74   -1.93    0.31   -0.35   -0.25    0.00    0.00      -0.47   -0.65   -0.47
#  25    1.50   -1.82    0.41   -0.46   -0.24    0.00    0.00      -0.61   -0.90   -0.47
#  26    0.84   -1.57    0.28   -0.41   -0.17    0.00    0.00      -1.03   -1.07   -0.45
#  27   -3.33   -1.00    0.16    2.36   -0.15    0.00    0.00      -1.95    9.51   -0.60
#  28   -0.46   -2.48    2.21   -2.19    0.10    0.00    0.00      -2.82   -8.04    0.38
#  29   10.24   -0.96    0.19   -4.11    0.55    0.00    0.00       5.90  -16.99    2.26
#  30   -2.08   -0.50    0.05    0.50   -0.10    0.00    0.00      -2.13    2.13   -0.42
#  31    0.55   -0.90    0.26    0.10   -0.10    0.00    0.00      -0.09    0.32   -0.34
#  32   15.92   -1.97    2.47   -4.45    0.15    0.00    0.00      12.12  -12.32    0.41
#  33  -25.55   -0.16    0.08    4.78    0.17    0.00    0.00     -20.70   15.93    0.56
#  34    0.28   -0.52    0.03    0.05   -0.11    0.00    0.00      -0.27    0.18   -0.41
#  35    4.13   -0.86    0.08   -1.63   -0.11    0.00    0.00       1.61   -4.15   -0.29
#  36    4.41   -1.65    0.48   -1.96   -0.14    0.00    0.00       1.14   -4.17   -0.30
#  37    0.29   -1.61    0.54    0.28   -0.24    0.00    0.00      -0.75    0.55   -0.48
#  38   -0.22    0.00    0.00    0.09    0.02    0.00    0.00      -0.12    4.45    1.10
#  39   -0.11   -0.01    0.00    0.03    0.00    0.00    0.00      -0.09    1.92   -0.28
#  40   -0.37   -0.02    0.00    0.06    0.00    0.00    0.00      -0.33    2.49   -0.21
#  41   -2.29   -0.54    0.64    0.09   -0.07    0.00    0.00      -2.16    0.39   -0.27
#  42   -0.13   -0.11    0.02    0.11   -0.03    0.00    0.00      -0.14    1.09   -0.28
#  43   -0.09   -0.17    0.04    0.13   -0.04    0.00    0.00      -0.12    0.98   -0.28
#  44   -0.32   -0.16    0.02    0.18   -0.04    0.00    0.00      -0.31    1.18   -0.24
#  45   -2.12   -0.02    0.00    1.20    0.09    0.00    0.00      -0.85    5.37    0.39
#  46   -1.04   -0.46    0.64    0.28   -0.05    0.00    0.00      -0.63    1.61   -0.26
#  47    0.18   -0.68    0.41    1.21   -0.09    0.00    0.00       1.04    3.55   -0.25
#  48   -0.72   -0.28    0.04    0.40   -0.08    0.00    0.00      -0.65    1.46   -0.28
#  49   -1.09   -0.31    0.05    0.29   -0.08    0.00    0.00      -1.15    0.95   -0.28
#  50   -1.41   -0.55    0.29    0.13   -0.12    0.00    0.00      -1.67    0.29   -0.28
#  51   -2.45   -0.51    0.10    0.13   -0.15    0.00    0.00      -2.89    0.25   -0.28
#  52   -1.82   -0.37    0.05    0.36   -0.12    0.00    0.00      -1.90    0.87   -0.28
#  53   -0.49   -0.35    0.06    0.74   -0.08    0.00    0.00      -0.12    2.57   -0.28
#  54   -6.13   -0.03    0.00    2.32    0.10    0.00    0.00      -3.73   12.31    0.53
#  55   -2.57   -0.19    0.04    0.35   -0.04    0.00    0.00      -2.41    2.18   -0.28
#  56   -1.28   -0.10    0.00    0.23   -0.02    0.00    0.00      -1.17    2.54   -0.24
#  57   -2.93   -0.15    0.01    0.96   -0.04    0.00    0.00      -2.15    6.21   -0.27
#  58   -5.06   -0.56    0.35    2.03   -0.09    0.00    0.00      -3.34    6.26   -0.28
#  59   -3.22   -0.12    0.00    0.58   -0.03    0.00    0.00      -2.78    4.49   -0.26
#  60   -2.32   -0.11    0.00    0.50   -0.03    0.00    0.00      -1.96    4.91   -0.27
#  61   -3.16   -0.42    0.10    0.71   -0.10    0.00    0.00      -2.87    2.02   -0.28
#  62   -2.95   -0.20    0.01    0.33   -0.06    0.00    0.00      -2.86    1.62   -0.28
#  63   -3.30   -1.38    1.39    0.75   -0.13    0.00    0.00      -2.67    1.58   -0.28
#  64   -2.64   -0.41    0.10    0.53   -0.08    0.00    0.00      -2.50    1.81   -0.28
#  65   -4.54   -0.46    0.11    2.39   -0.12    0.00    0.00      -2.61    5.33   -0.26
#  66   -6.54   -0.82    0.49    2.73   -0.15    0.00    0.00      -4.29    5.05   -0.28

@<TRIPOS>MOLECULE
          T525312        77
   66    69     0     0     0



@<TRIPOS>ATOM
      1 O1          7.4604   -15.3609    87.5659 O.3        1          -0.4874
      2 C1          7.6236   -14.4733    88.5788 C.ar       1           0.1565
      3 C2          8.0446   -13.1789    88.3058 C.ar       1          -0.1492
      4 C3          8.2124   -12.2737    89.3304 C.ar       1          -0.0635
      5 C4          7.9596   -12.6540    90.6519 C.ar       1          -0.1456
      6 C5          7.5359   -13.9528    90.9339 C.ar       1          -0.0220
      7 C6          7.3619   -14.8620    89.8984 C.ar       1          -0.0852
      8 C7          6.9063   -16.2432    90.1902 C.ar       1          -0.0249
      9 C8          7.7100   -17.3306    89.8521 C.ar       1          -0.0882
     10 C9          7.2827   -18.6137    90.1257 C.ar       1          -0.0932
     11 C10         6.0573   -18.8228    90.7351 C.ar       1          -0.0287
     12 Cl1         5.5255   -20.4395    91.0766 Cl         1          -0.0408
     13 C11         5.2545   -17.7457    91.0738 C.ar       1          -0.0279
     14 Cl2         3.7194   -18.0153    91.8383 Cl         1          -0.0406
     15 C12         5.6760   -16.4574    90.8083 C.ar       1          -0.0813
     16 C13         8.1412   -11.6819    91.7480 C.2        1           0.5675
     17 O2          8.9337   -10.7681    91.6249 O.2        1          -0.5067
     18 N1          7.4289   -11.8075    92.8852 N.am       1          -0.7166
     19 C14         7.6093   -10.8429    93.9729 C.3        1           0.1392
     20 C15         7.3411   -11.5299    95.3134 C.3        1          -0.0847
     21 C16         7.9794   -10.7340    96.4224 C.ar       1          -0.0789
     22 C17         9.2813   -11.0001    96.8034 C.ar       1          -0.1051
     23 C18         9.8668   -10.2699    97.8207 C.ar       1          -0.1093
     24 C19         9.1505    -9.2733    98.4568 C.ar       1          -0.1111
     25 C20         7.8489    -9.0066    98.0753 C.ar       1          -0.1117
     26 C21         7.2649    -9.7339    97.0551 C.ar       1          -0.1052
     27 C22         6.6461    -9.6978    93.7939 C.2        1           0.5223
     28 O3          5.5427    -9.7494    94.2948 O.2        1          -0.5154
     29 N2          7.0108    -8.6162    93.0770 N.am       1          -0.7291
     30 C23         6.0744    -7.5031    92.9029 C.3        1           0.0963
     31 C24         6.2628    -6.4959    94.0391 C.3        1          -0.0181
     32 N3          5.3239    -5.3796    93.8647 N.4        1          -0.3912
     33 H1          5.4952    -4.9217    92.9821 H          1           0.4299
     34 C25         3.9371    -5.8803    93.9082 C.3        1          -0.0108
     35 C26         3.1841    -4.7268    94.5987 C.3        1          -0.1453
     36 C27         4.1733    -4.4666    95.7416 C.3        1          -0.1454
     37 C28         5.4814    -4.4213    94.9611 C.3        1          -0.0072
     38 H2          7.1612   -16.2345    87.8529 H          1           0.3971
     39 H3          8.2414   -12.8807    87.2865 H          1           0.1419
     40 H4          8.5404   -11.2681    89.1126 H          1           0.1314
     41 H5          7.3401   -14.2496    91.9538 H          1           0.1450
     42 H6          8.6661   -17.1691    89.3764 H          1           0.1407
     43 H7          7.9049   -19.4565    89.8636 H          1           0.1477
     44 H8          5.0517   -15.6179    91.0761 H          1           0.1380
     45 H9          6.7966   -12.5365    92.9833 H          1           0.4088
     46 H10         8.6312   -10.4641    93.9569 H          1           0.1232
     47 H11         6.2659   -11.5906    95.4820 H          1           0.0825
     48 H12         7.7636   -12.5346    95.2977 H          1           0.0827
     49 H13         9.8410   -11.7787    96.3063 H          1           0.1107
     50 H14        10.8837   -10.4782    98.1188 H          1           0.1174
     51 H15         9.6078    -8.7033    99.2521 H          1           0.1195
     52 H16         7.2892    -8.2282    98.5725 H          1           0.1194
     53 H17         6.2492    -9.5230    96.7545 H          1           0.1135
     54 H18         7.8932    -8.5750    92.6763 H          1           0.4113
     55 H19         6.2653    -7.0135    91.9480 H          1           0.0909
     56 H20         5.0524    -7.8820    92.9192 H          1           0.0914
     57 H21         6.0719    -6.9854    94.9942 H          1           0.1379
     58 H22         7.2847    -6.1169    94.0230 H          1           0.1384
     59 H23         3.5533    -6.0450    92.9015 H          1           0.1377
     60 H24         3.8736    -6.7930    94.5006 H          1           0.1358
     61 H25         3.0905    -3.8602    93.9441 H          1           0.0995
     62 H26         2.2130    -5.0497    94.9743 H          1           0.1182
     63 H27         3.9706    -3.5141    96.2314 H          1           0.1066
     64 H28         4.1704    -5.2850    96.4617 H          1           0.1050
     65 H29         6.3128    -4.7147    95.6020 H          1           0.1321
     66 H30         5.6489    -3.4196    94.5651 H          1           0.1346
@<TRIPOS>BOND
     1    1    2 1
     2    1   38 1
     3    2    7 ar
     4    2    3 ar
     5    3    4 ar
     6    3   39 1
     7    4    5 ar
     8    4   40 1
     9    5    6 ar
    10    5   16 1
    11    6    7 ar
    12    6   41 1
    13    7    8 1
    14    8   15 ar
    15    8    9 ar
    16    9   10 ar
    17    9   42 1
    18   10   11 ar
    19   10   43 1
    20   11   12 1
    21   11   13 ar
    22   13   14 1
    23   13   15 ar
    24   15   44 1
    25   16   17 2
    26   16   18 am
    27   18   19 1
    28   18   45 1
    29   19   20 1
    30   19   27 1
    31   19   46 1
    32   20   21 1
    33   20   47 1
    34   20   48 1
    35   21   26 ar
    36   21   22 ar
    37   22   23 ar
    38   22   49 1
    39   23   24 ar
    40   23   50 1
    41   24   25 ar
    42   24   51 1
    43   25   26 ar
    44   25   52 1
    45   26   53 1
    46   27   28 2
    47   27   29 am
    48   29   30 1
    49   29   54 1
    50   30   31 1
    51   30   55 1
    52   30   56 1
    53   31   32 1
    54   31   57 1
    55   31   58 1
    56   32   33 1
    57   32   37 1
    58   32   34 1
    59   34   35 1
    60   34   59 1
    61   34   60 1
    62   35   36 1
    63   35   61 1
    64   35   62 1
    65   36   37 1
    66   36   63 1
    67   36   64 1
    68   37   65 1
    69   37   66 1
##########                 Name:              T525534
##########          Protonation:                   21
##########               SMILES:   COc1ccc2c(n1)c(c(cn2)F)CC[NH+]3C[C@H]([C@H](C3)O)C[NH2+]Cc4ccc(cc4)F
##########            Long Name:   hyl]-4-hydroxy-pyrrolidin-1-ium-3-yl]methyl-[(4-fluorophenyl)methyl]ammonium
##########          FlexRecCode: 1
##########               Number:                  123
##########   Ligand Source File: /raidb/db2/rgc/tcams/tcams-0000098.db2.gz
##########           GlobalRank: 254
##########                 Rank:                    1
##########               Setnum:                  106
##########             Matchnum:                  983
##########                Cloud:                    1
##########        Electrostatic:           -54.464844
##########        Van der Waals:           -26.320044
##########  Ligand Polar Desolv:            18.394142
########## Ligand Apolar Desolv:            -3.187360
##########      Internal Energy:             0.000000
##########      Receptor Energy: 0.0
########## Receptor Desolvation:             0.000000
########## Receptor Hydrophobic:             0.000000
##########         Total Energy: -65.58
##########        Ligand Charge:             2.000000
##########            Arbitrary:    +999.9990
##########     heavy atom count:   31
##########           pose count:    1
##########        Ligand Energy:             0.000000
# num electro vdwattr vdwrepu polsolv apolsol rdesolv rhydroe totalscore fullpol fullapo
#   1   -0.76   -0.34    0.02    0.08    0.01    0.00    0.00      -0.99    0.42    0.03
#   2    2.85   -0.30    0.01   -1.16    0.14    0.00    0.00       1.53   -7.43    0.90
#   3   -2.88   -0.69    0.08    1.54   -0.14    0.00    0.00      -2.08    7.34   -0.66
#   4    0.82   -0.77    0.11   -0.72   -0.10    0.00    0.00      -0.66   -3.20   -0.46
#   5   -0.05   -1.13    0.15   -0.25   -0.15    0.00    0.00      -1.43   -0.83   -0.48
#   6   -0.21   -1.21    0.15   -0.12   -0.24    0.00    0.00      -1.63   -0.37   -0.73
#   7    2.27   -1.36    0.12   -3.20    0.82    0.00    0.00      -1.34   -7.79    2.00
#   8   -0.67   -2.11    0.91    0.51   -0.41    0.00    0.00      -1.77    1.21   -0.97
#   9   -1.00   -1.68    0.34    0.74   -0.14    0.00    0.00      -1.73    1.79   -0.34
#  10    1.64   -1.19    0.26   -1.43   -0.24    0.00    0.00      -0.96   -2.65   -0.45
#  11    1.10   -1.16    0.11   -0.22   -0.13    0.00    0.00      -0.30   -0.64   -0.36
#  12    1.58   -0.73    0.06   -1.45   -0.08    0.00    0.00      -0.64   -3.88   -0.22
#  13   -0.01   -0.53    0.02    0.40   -0.10    0.00    0.00      -0.21    1.40   -0.35
#  14   11.27   -0.92    0.08   -6.41    0.15    0.00    0.00       4.18  -17.74    0.42
#  15  -16.00   -0.02    0.00    7.23    0.17    0.00    0.00      -8.61   23.39    0.56
#  16    1.12   -1.34    0.35   -1.14   -0.16    0.00    0.00      -1.17   -2.71   -0.38
#  17   -1.93   -0.81    0.06    1.85   -0.07    0.00    0.00      -0.91    4.53   -0.18
#  18    9.46   -0.79    0.04  -10.60    0.46    0.00    0.00      -1.43  -28.34    1.22
#  19    3.77   -0.81    0.07   -2.25   -0.08    0.00    0.00       0.71   -6.11   -0.21
#  20   -0.23   -0.63    0.05    0.13   -0.10    0.00    0.00      -0.77    0.43   -0.33
#  21   11.13   -1.18    0.16   -9.62    0.28    0.00    0.00       0.77  -24.79    0.73
#  22  -11.41   -0.02    0.00    6.51    0.11    0.00    0.00      -4.81   22.24    0.39
#  23   -9.38   -0.04    0.00    8.72    0.21    0.00    0.00      -0.48   23.56    0.57
#  24   -1.03   -0.75    0.07    1.38   -0.16    0.00    0.00      -0.50    3.62   -0.42
#  25    4.58   -1.50    0.14   -1.91   -0.19    0.00    0.00       1.12   -3.74   -0.37
#  26    1.46   -2.67    1.15   -0.82   -0.25    0.00    0.00      -1.12   -1.48   -0.45
#  27    3.67   -3.75    2.51   -3.07   -0.30    0.00    0.00      -0.95   -4.76   -0.47
#  28   -3.54   -3.71    2.13   -0.32   -0.23    0.00    0.00      -5.67   -0.46   -0.34
#  29    2.78   -5.17    9.06   -1.93   -0.34    0.00    0.00       4.40   -2.74   -0.48
#  30    3.57   -2.88    0.59   -3.21   -0.31    0.00    0.00      -2.25   -4.80   -0.47
#  31    1.41   -2.17    0.31   -0.94   -0.27    0.00    0.00      -1.66   -1.59   -0.45
#  32   -0.20   -0.71    0.09    0.05   -0.14    0.00    0.00      -0.91    0.15   -0.43
#  33   -1.22   -1.16    0.18    0.90   -0.22    0.00    0.00      -1.51    3.04   -0.73
#  34    5.80   -0.92    0.12   -2.91    0.64    0.00    0.00       2.72  -11.56    2.54
#  35   -1.94   -0.08    0.00    0.23   -0.02    0.00    0.00      -1.81    3.07   -0.28
#  36   -1.09   -0.09    0.00    0.17   -0.02    0.00    0.00      -1.02    2.30   -0.28
#  37   -1.36   -0.21    0.03    0.86   -0.05    0.00    0.00      -0.73    4.39   -0.28
#  38   -0.82   -0.09    0.00    0.20   -0.02    0.00    0.00      -0.72    2.82   -0.28
#  39   -1.72   -0.27    0.04    0.51   -0.07    0.00    0.00      -1.51    2.04   -0.28
#  40   -1.35   -0.79    1.34    1.20   -0.10    0.00    0.00       0.29    3.31   -0.28
#  41   -1.88   -0.28    0.06    1.28   -0.06    0.00    0.00      -0.89    5.04   -0.23
#  42   -2.41   -0.34    0.07    1.54   -0.08    0.00    0.00      -1.22    5.01   -0.26
#  43   -2.50   -0.12    0.00    0.69   -0.03    0.00    0.00      -1.96    6.16   -0.28
#  44   -1.36   -0.20    0.03    1.03   -0.05    0.00    0.00      -0.55    5.89   -0.27
#  45   -3.20   -0.42    0.11    2.35   -0.09    0.00    0.00      -1.25    6.95   -0.26
#  46   -4.39   -1.05    1.02    2.75   -0.11    0.00    0.00      -1.78    6.70   -0.26
#  47   -3.15   -0.38    0.06    2.39   -0.11    0.00    0.00      -1.20    6.00   -0.28
#  48   -7.85   -0.01    0.00    3.54    0.21    0.00    0.00      -4.11   20.45    1.22
#  49   -4.38   -0.50    0.13    3.68   -0.11    0.00    0.00      -1.17    9.56   -0.28
#  50   -2.53   -0.27    0.07    1.97   -0.06    0.00    0.00      -0.82    9.44   -0.28
#  51   -2.52   -0.10    0.00    0.71   -0.02    0.00    0.00      -1.94    8.02   -0.27
#  52   -1.75   -0.29    0.09    2.05   -0.06    0.00    0.00       0.03    8.85   -0.28
#  53   -2.97   -0.24    0.06    1.57   -0.05    0.00    0.00      -1.63    8.33   -0.28
#  54   -4.21   -1.06    1.45    3.64   -0.13    0.00    0.00      -0.31    7.91   -0.28
#  55   -3.63   -1.70    4.51    1.24   -0.18    0.00    0.00       0.22    1.92   -0.28
#  56   -3.54   -0.82    0.22    1.13   -0.18    0.00    0.00      -3.19    1.78   -0.28
#  57   -3.24   -0.58    0.12    3.88   -0.14    0.00    0.00       0.03    7.89   -0.28
#  58   -7.15   -0.59    0.51    2.56   -0.08    0.00    0.00      -4.75    9.03   -0.28
#  59   -3.26   -0.11    0.00    0.86   -0.03    0.00    0.00      -2.53    8.00   -0.26

@<TRIPOS>MOLECULE
          T525534        21
   59    62     0     0     0



@<TRIPOS>ATOM
      1 C1          6.1502    -7.7987    91.5070 C.3        1           0.0404
      2 O1          6.4977    -9.1846    91.5369 O.3        1          -0.2897
      3 C2          6.7723    -9.7242    92.7500 C.ar       1           0.3795
      4 C3          7.1239   -11.0775    92.8337 C.ar       1          -0.1599
      5 C4          7.4032   -11.6343    94.0455 C.ar       1           0.0085
      6 C5          7.3275   -10.8160    95.1922 C.ar       1           0.0416
      7 N1          7.5906   -11.3061    96.4058 N.ar       1          -0.3996
      8 C6          7.5226   -10.5515    97.4754 C.ar       1           0.0974
      9 C7          7.1726    -9.2024    97.3968 C.ar       1           0.1011
     10 F1          7.1123    -8.4528    98.5192 F          1          -0.1165
     11 C8          6.8912    -8.6404    96.1823 C.ar       1          -0.1013
     12 C9          6.5114    -7.1862    96.0724 C.3        1          -0.0887
     13 C10         5.3091    -7.0422    95.1371 C.3        1           0.0008
     14 N2          4.9391    -5.6247    95.0300 N.4        1          -0.3903
     15 H1          5.7708    -5.0555    94.9824 H          1           0.4362
     16 C11         4.1276    -5.2292    96.1962 C.3        1          -0.0433
     17 C12         2.6882    -5.4272    95.6841 C.3        1           0.0796
     18 O2          2.3649    -6.8121    95.5448 O.3        1          -0.5662
     19 C13         2.8438    -4.7434    94.3207 C.3        1          -0.1392
     20 C14         1.6639    -5.0629    93.4007 C.3        1           0.0113
     21 N3          0.5232    -4.2064    93.7519 N.4        1          -0.5053
     22 H2          0.2578    -4.3760    94.7105 H          1           0.4334
     23 H3          0.7832    -3.2378    93.6412 H          1           0.4254
     24 C15        -0.6098    -4.5132    92.8685 C.3        1           0.0524
     25 C16        -1.7799    -3.6345    93.2289 C.ar       1          -0.1900
     26 C17        -2.6950    -4.0567    94.1753 C.ar       1          -0.0589
     27 C18        -3.7685    -3.2518    94.5066 C.ar       1          -0.1526
     28 C19        -3.9270    -2.0220    93.8906 C.ar       1           0.1490
     29 F2         -4.9758    -1.2341    94.2140 F          1          -0.1174
     30 C20        -3.0097    -1.6000    92.9432 C.ar       1          -0.1516
     31 C21        -1.9344    -2.4045    92.6170 C.ar       1          -0.0602
     32 C22         4.1222    -5.4129    93.8334 C.3        1           0.0065
     33 C23         6.9661    -9.4562    95.0372 C.ar       1           0.1555
     34 N4          6.7079    -8.9639    93.8216 N.ar       1          -0.5573
     35 H4          5.9556    -7.4951    90.4784 H          1           0.1052
     36 H5          5.2566    -7.6351    92.1095 H          1           0.0613
     37 H6          6.9734    -7.2090    91.9104 H          1           0.0507
     38 H7          7.1732   -11.6793    91.9383 H          1           0.1650
     39 H8          7.6755   -12.6763    94.1262 H          1           0.1698
     40 H9          7.7422   -10.9838    98.4404 H          1           0.1864
     41 H10         6.2520    -6.8028    97.0593 H          1           0.1110
     42 H11         7.3527    -6.6202    95.6724 H          1           0.1030
     43 H12         5.5687    -7.4256    94.1503 H          1           0.1385
     44 H13         4.4680    -7.6081    95.5372 H          1           0.1363
     45 H14         4.3291    -5.8803    97.0469 H          1           0.1492
     46 H15         4.3061    -4.1857    96.4563 H          1           0.1498
     47 H16         1.9636    -4.9104    96.3136 H          1           0.1179
     48 H17         1.4674    -6.9762    95.2248 H          1           0.4238
     49 H18         2.9771    -3.6671    94.4302 H          1           0.1404
     50 H19         1.9504    -4.8797    92.3651 H          1           0.1438
     51 H20         1.3827    -6.1093    93.5202 H          1           0.1459
     52 H21        -0.3232    -4.3299    91.8331 H          1           0.1406
     53 H22        -0.8908    -5.5595    92.9881 H          1           0.1411
     54 H23        -2.5710    -5.0160    94.6558 H          1           0.1416
     55 H24        -4.4836    -3.5821    95.2455 H          1           0.1517
     56 H25        -3.1325    -0.6411    92.4618 H          1           0.1523
     57 H26        -1.2164    -2.0739    91.8810 H          1           0.1425
     58 H27         4.6433    -4.7626    93.1309 H          1           0.1560
     59 H28         3.8914    -6.3674    93.3604 H          1           0.1456
@<TRIPOS>BOND
     1    1    2 1
     2    1   35 1
     3    1   36 1
     4    1   37 1
     5    2    3 1
     6    3   34 ar
     7    3    4 ar
     8    4    5 ar
     9    4   38 1
    10    5    6 ar
    11    5   39 1
    12    6   33 ar
    13    6    7 ar
    14    7    8 ar
    15    8    9 ar
    16    8   40 1
    17    9   10 1
    18    9   11 ar
    19   11   12 1
    20   11   33 ar
    21   12   13 1
    22   12   41 1
    23   12   42 1
    24   13   14 1
    25   13   43 1
    26   13   44 1
    27   14   15 1
    28   14   32 1
    29   14   16 1
    30   16   17 1
    31   16   45 1
    32   16   46 1
    33   17   18 1
    34   17   19 1
    35   17   47 1
    36   18   48 1
    37   19   20 1
    38   19   32 1
    39   19   49 1
    40   20   21 1
    41   20   50 1
    42   20   51 1
    43   21   22 1
    44   21   23 1
    45   21   24 1
    46   24   25 1
    47   24   52 1
    48   24   53 1
    49   25   31 ar
    50   25   26 ar
    51   26   27 ar
    52   26   54 1
    53   27   28 ar
    54   27   55 1
    55   28   29 1
    56   28   30 ar
    57   30   31 ar
    58   30   56 1
    59   31   57 1
    60   32   58 1
    61   32   59 1
    62   33   34 ar
##########                 Name:              T525099
##########          Protonation:                  100
##########               SMILES:   c(cc1)[C@H](CNC(=O)Nc2cc(c(cc2)Cl)Cl)CC[NH+]3CC[C@@H](CC3)c4c5c([nH]c4)cccc5
##########            Long Name:   henyl)-3-[(2R)-4-[4-(1H-indol-3-yl)piperidin-1-ium-1-yl]-2-phenyl-butyl]urea
##########          FlexRecCode: 1
##########               Number:                  102
##########   Ligand Source File: /raidb/db2/rgc/tcams/tcams-0000137.db2.gz
##########           GlobalRank: 255
##########                 Rank:                    1
##########               Setnum:                  174
##########             Matchnum:                  345
##########                Cloud:                    1
##########        Electrostatic:           -40.777905
##########        Van der Waals:           -27.675207
##########  Ligand Polar Desolv:             6.865922
########## Ligand Apolar Desolv:            -3.976094
##########      Internal Energy:             0.000000
##########      Receptor Energy: 0.0
########## Receptor Desolvation:             0.000000
########## Receptor Hydrophobic:             0.000000
##########         Total Energy: -65.56
##########        Ligand Charge:             1.000000
##########            Arbitrary:    +999.9990
##########     heavy atom count:   37
##########           pose count:    1
##########        Ligand Energy:             0.000000
# num electro vdwattr vdwrepu polsolv apolsol rdesolv rhydroe totalscore fullpol fullapo
#   1    0.55   -7.84    7.19   -0.12   -0.56    0.00    0.00      -0.78   -0.20   -0.95
#   2    0.32   -1.98    0.38   -0.17   -0.15    0.00    0.00      -1.61   -0.32   -0.29
#   3    0.19   -2.69    1.27   -0.18   -0.20    0.00    0.00      -1.62   -0.42   -0.46
#   4    0.17   -2.03    0.64   -0.26   -0.15    0.00    0.00      -1.63   -0.71   -0.40
#   5   -1.29   -1.41    0.18    0.58   -0.25    0.00    0.00      -2.19    1.59   -0.68
#   6    7.92   -1.19    0.09   -2.96    0.63    0.00    0.00       4.48   -7.97    1.70
#   7   -7.34   -1.16    0.13    2.75   -0.73    0.00    0.00      -6.36    7.86   -2.08
#   8    0.08   -2.92    4.01   -1.37    0.11    0.00    0.00      -0.09   -4.11    0.34
#   9   13.68   -1.04    0.07   -4.46    0.85    0.00    0.00       9.09  -12.08    2.29
#  10   -2.98   -0.60    0.03    0.85   -0.13    0.00    0.00      -2.84    2.57   -0.38
#  11    0.90   -0.43    0.02   -0.16   -0.03    0.00    0.00       0.30   -0.75   -0.14
#  12    4.29   -0.75    0.25   -1.12   -0.04    0.00    0.00       2.62   -4.52   -0.18
#  13    0.21   -0.41    0.04    0.03   -0.06    0.00    0.00      -0.19    0.16   -0.33
#  14   11.37   -1.06    0.45   -2.93    0.07    0.00    0.00       7.89  -12.16    0.27
#  15  -19.45   -0.08    0.01    4.54    0.14    0.00    0.00     -14.83   17.09    0.54
#  16    0.21   -0.31    0.02    0.03   -0.06    0.00    0.00      -0.11    0.15   -0.37
#  17    2.72   -0.40    0.03   -0.68   -0.04    0.00    0.00       1.62   -3.42   -0.22
#  18    0.27   -0.38    0.02   -0.08   -0.03    0.00    0.00      -0.19   -0.39   -0.17
#  19    3.57   -1.24    0.48   -1.10   -0.07    0.00    0.00       1.65   -3.57   -0.22
#  20    0.16   -0.96    0.29    0.15   -0.10    0.00    0.00      -0.46    0.55   -0.38
#  21    3.44   -0.66    0.04   -0.69   -0.09    0.00    0.00       2.04   -2.83   -0.35
#  22   -1.88   -1.55    0.33    0.40   -0.36    0.00    0.00      -3.05    1.05   -0.94
#  23   18.74   -2.77    1.81   -3.06    0.49    0.00    0.00      15.22   -7.29    1.17
#  24   -1.47   -1.40    0.42    0.06   -0.25    0.00    0.00      -2.64    0.20   -0.78
#  25    0.38   -2.24    1.77   -0.30   -0.14    0.00    0.00      -0.52   -1.01   -0.48
#  26    0.20   -0.82    0.26   -0.17   -0.09    0.00    0.00      -0.63   -0.83   -0.47
#  27    0.25   -0.28    0.01   -0.15   -0.06    0.00    0.00      -0.24   -1.25   -0.47
#  28    0.17   -0.26    0.00   -0.08   -0.05    0.00    0.00      -0.22   -0.75   -0.47
#  29    0.75   -0.47    0.02   -0.28   -0.09    0.00    0.00      -0.07   -1.40   -0.44
#  30    1.85   -0.57    0.02   -0.30   -0.05    0.00    0.00       0.95   -1.38   -0.22
#  31    1.18   -0.46    0.01   -0.33   -0.07    0.00    0.00       0.34   -2.02   -0.40
#  32    1.02   -0.50    0.02   -0.43   -0.09    0.00    0.00       0.01   -2.22   -0.47
#  33    1.77   -0.81    0.06   -0.63   -0.14    0.00    0.00       0.26   -2.18   -0.47
#  34    2.39   -1.13    0.11   -0.78   -0.16    0.00    0.00       0.43   -2.28   -0.47
#  35    2.78   -0.94    0.06   -0.65   -0.14    0.00    0.00       1.10   -2.08   -0.45
#  36    1.20   -1.67    0.44   -0.42   -0.20    0.00    0.00      -0.66   -0.95   -0.45
#  37    0.08   -1.77    0.35   -0.09   -0.16    0.00    0.00      -1.61   -0.16   -0.29
#  38    0.19   -6.02    3.17   -0.15   -0.58    0.00    0.00      -3.39   -0.24   -0.95
#  39   -0.13   -1.11    1.75    0.41   -0.12    0.00    0.00       0.80    0.99   -0.28
#  40    0.21   -0.60    0.48    0.22   -0.06    0.00    0.00       0.26    0.80   -0.22
#  41   -6.40   -0.02    0.00    1.76    0.15    0.00    0.00      -4.51    7.01    0.59
#  42   -8.89   -0.02    0.00    2.13    0.14    0.00    0.00      -6.64    8.48    0.54
#  43   -1.25   -0.20    0.01    0.20   -0.06    0.00    0.00      -1.30    0.86   -0.25
#  44   -2.10   -0.24    0.02    0.34   -0.06    0.00    0.00      -2.05    1.51   -0.28
#  45   -0.62   -0.19    0.05    0.56   -0.04    0.00    0.00      -0.24    4.04   -0.27
#  46   -4.15   -0.54    0.57    0.73   -0.04    0.00    0.00      -3.44    3.10   -0.19
#  47   -3.22   -0.26    0.08    0.93   -0.06    0.00    0.00      -2.53    4.56   -0.28
#  48   -1.75   -0.08    0.00    0.48   -0.02    0.00    0.00      -1.37    6.55   -0.28
#  49   -2.22   -0.08    0.00    0.28   -0.02    0.00    0.00      -2.03    3.96   -0.25
#  50   -1.49   -0.04    0.00    0.15   -0.01    0.00    0.00      -1.38    3.99   -0.28
#  51   -1.88   -0.08    0.00    0.41   -0.02    0.00    0.00      -1.56    5.22   -0.22
#  52   -1.37   -0.07    0.00    0.08   -0.02    0.00    0.00      -1.37    1.26   -0.28
#  53   -2.53   -0.28    0.05    0.74   -0.06    0.00    0.00      -2.08    3.28   -0.27
#  54   -1.11   -0.05    0.00    0.07   -0.01    0.00    0.00      -1.10    1.55   -0.28
#  55   -2.17   -0.52    0.41    0.40   -0.08    0.00    0.00      -1.95    1.43   -0.28
#  56   -3.18   -1.13    2.27    1.26   -0.10    0.00    0.00      -0.88    3.35   -0.27
#  57   -4.02   -0.57    0.46    1.79   -0.08    0.00    0.00      -2.43    6.07   -0.28
#  58   -2.14   -0.14    0.02    0.59   -0.04    0.00    0.00      -1.71    4.17   -0.28
#  59   -5.93   -0.67    0.56    2.27   -0.11    0.00    0.00      -3.89    5.67   -0.28
#  60  -19.28   -0.16    0.04    2.63    0.27    0.00    0.00     -16.49    5.77    0.60
#  61   -1.69   -1.49    4.10    0.25   -0.10    0.00    0.00       1.07    0.71   -0.28
#  62   -0.24   -0.17    0.05    0.08   -0.04    0.00    0.00      -0.30    0.65   -0.28
#  63   -0.17   -0.03    0.00    0.03   -0.01    0.00    0.00      -0.18    0.96   -0.28
#  64   -0.29   -0.03    0.00    0.06   -0.01    0.00    0.00      -0.26    1.94   -0.28
#  65   -0.66   -0.09    0.00    0.28   -0.02    0.00    0.00      -0.48    2.99   -0.24
#  66   -0.34   -0.08    0.00    0.09   -0.02    0.00    0.00      -0.35    1.24   -0.28
#  67   -2.14   -0.18    0.01    0.14   -0.05    0.00    0.00      -2.21    0.83   -0.28
#  68   -2.91   -0.35    0.05    0.52   -0.09    0.00    0.00      -2.77    1.63   -0.28
#  69   -3.38   -0.26    0.02    1.03   -0.07    0.00    0.00      -2.66    4.02   -0.28
#  70   -1.95   -0.31    0.04    0.68   -0.09    0.00    0.00      -1.62    2.08   -0.28

@<TRIPOS>MOLECULE
          T525099       100
   70    74     0     0     0



@<TRIPOS>ATOM
      1 Cl1         8.0802   -14.3340    96.9995 Cl         1          -0.0416
      2 C1          7.7656   -12.6309    96.8818 C.ar       1          -0.0465
      3 C2          6.8914   -12.1547    95.9206 C.ar       1          -0.0760
      4 C3          6.6396   -10.8002    95.8244 C.ar       1          -0.1046
      5 C4          7.2640    -9.9151    96.6936 C.ar       1           0.1801
      6 N1          7.0096    -8.5417    96.5981 N.am       1          -0.6822
      7 C5          5.8125    -8.1072    96.1567 C.2        1           0.7076
      8 O1          4.9536    -8.9080    95.8416 O.2        1          -0.5651
      9 N2          5.5678    -6.7850    96.0648 N.am       1          -0.7386
     10 C6          4.2665    -6.3128    95.5850 C.3        1           0.1461
     11 C7          4.0268    -6.8328    94.1661 C.3        1          -0.0512
     12 C8          5.1299    -6.3161    93.2404 C.3        1          -0.1398
     13 C9          5.1984    -7.1938    91.9891 C.3        1          -0.0095
     14 N3          6.2575    -6.6977    91.1003 N.4        1          -0.3818
     15 H1          6.2462    -5.6887    91.0957 H          1           0.4215
     16 C10         6.0243    -7.1944    89.7390 C.3        1          -0.0119
     17 C11         7.0784    -6.6151    88.7928 C.3        1          -0.1380
     18 C12         8.4706    -7.0457    89.2637 C.3        1          -0.0146
     19 C13         8.6742    -6.5869    90.7103 C.3        1          -0.1387
     20 C14         7.5607    -7.1687    91.5842 C.3        1          -0.0061
     21 C15         9.5179    -6.4149    88.3826 C.2        1          -0.1865
     22 C16         9.7208    -5.1007    88.1990 C.2        1           0.0670
     23 N4         10.7598    -4.9060    87.3304 N.pl3      1          -0.5899
     24 C17        11.2636    -6.1210    86.9234 C.ar       1           0.0952
     25 C18        12.2959    -6.4918    86.0674 C.ar       1          -0.1256
     26 C19        12.5651    -7.8264    85.8582 C.ar       1          -0.0927
     27 C20        11.8163    -8.8079    86.4933 C.ar       1          -0.1358
     28 C21        10.7981    -8.4663    87.3379 C.ar       1          -0.0789
     29 C22        10.5118    -7.1193    87.5690 C.ar       1          -0.1000
     30 C23         2.6884    -6.3470    93.6726 C.ar       1          -0.1037
     31 C24         1.9647    -7.1090    92.7745 C.ar       1          -0.1130
     32 C25         0.7370    -6.6634    92.3218 C.ar       1          -0.1117
     33 C26         0.2326    -5.4559    92.7674 C.ar       1          -0.1103
     34 C27         0.9560    -4.6943    93.6662 C.ar       1          -0.1117
     35 C28         2.1818    -5.1419    94.1221 C.ar       1          -0.1187
     36 C29         8.1404   -10.3943    97.6577 C.ar       1          -0.1290
     37 C30         8.3853   -11.7515    97.7536 C.ar       1          -0.0102
     38 Cl2         9.4755   -12.3530    98.9634 Cl         1          -0.0374
     39 H2          6.4059   -12.8429    95.2446 H          1           0.1484
     40 H3          5.9578   -10.4294    95.0734 H          1           0.1498
     41 H4          7.6949    -7.9029    96.8494 H          1           0.4109
     42 H5          6.2531    -6.1463    96.3161 H          1           0.4002
     43 H6          3.4808    -6.6808    96.2445 H          1           0.0753
     44 H7          4.2552    -5.2229    95.5792 H          1           0.0768
     45 H8          4.0380    -7.9227    94.1718 H          1           0.0978
     46 H9          4.9102    -5.2882    92.9517 H          1           0.0945
     47 H10         6.0870    -6.3505    93.7612 H          1           0.0969
     48 H11         5.4181    -8.2215    92.2778 H          1           0.1320
     49 H12         4.2413    -7.1594    91.4684 H          1           0.1322
     50 H13         6.0903    -8.2824    89.7332 H          1           0.1293
     51 H14         5.0319    -6.8897    89.4066 H          1           0.1313
     52 H15         6.9045    -6.9865    87.7830 H          1           0.1133
     53 H16         7.0130    -5.5271    88.7976 H          1           0.0868
     54 H17         8.5536    -8.1313    89.2104 H          1           0.0931
     55 H18         9.6410    -6.9380    91.0709 H          1           0.1136
     56 H19         8.6419    -5.4982    90.7549 H          1           0.0869
     57 H20         7.7036    -6.8451    92.6152 H          1           0.1302
     58 H21         7.5932    -8.2573    91.5382 H          1           0.1289
     59 H22         9.1482    -4.3136    88.6673 H          1           0.1654
     60 H23        11.0921    -4.0408    87.0439 H          1           0.4208
     61 H24        12.8838    -5.7356    85.5684 H          1           0.1239
     62 H25        13.3666    -8.1121    85.1930 H          1           0.1303
     63 H26        12.0402    -9.8498    86.3181 H          1           0.1262
     64 H27        10.2200    -9.2352    87.8285 H          1           0.1192
     65 H28         2.3586    -8.0524    92.4263 H          1           0.1213
     66 H29         0.1718    -7.2583    91.6197 H          1           0.1260
     67 H30        -0.7262    -5.1074    92.4132 H          1           0.1265
     68 H31         0.5621    -3.7508    94.0141 H          1           0.1268
     69 H32         2.7452    -4.5487    94.8272 H          1           0.1235
     70 H33         8.6271    -9.7080    98.3348 H          1           0.1457
@<TRIPOS>BOND
     1    1    2 1
     2    2   37 ar
     3    2    3 ar
     4    3    4 ar
     5    3   39 1
     6    4    5 ar
     7    4   40 1
     8    5    6 1
     9    5   36 ar
    10    6    7 am
    11    6   41 1
    12    7    8 2
    13    7    9 am
    14    9   10 1
    15    9   42 1
    16   10   11 1
    17   10   43 1
    18   10   44 1
    19   11   12 1
    20   11   30 1
    21   11   45 1
    22   12   13 1
    23   12   46 1
    24   12   47 1
    25   13   14 1
    26   13   48 1
    27   13   49 1
    28   14   15 1
    29   14   20 1
    30   14   16 1
    31   16   17 1
    32   16   50 1
    33   16   51 1
    34   17   18 1
    35   17   52 1
    36   17   53 1
    37   18   19 1
    38   18   21 1
    39   18   54 1
    40   19   20 1
    41   19   55 1
    42   19   56 1
    43   20   57 1
    44   20   58 1
    45   21   29 1
    46   21   22 2
    47   22   23 1
    48   22   59 1
    49   23   24 1
    50   23   60 1
    51   24   29 ar
    52   24   25 ar
    53   25   26 ar
    54   25   61 1
    55   26   27 ar
    56   26   62 1
    57   27   28 ar
    58   27   63 1
    59   28   29 ar
    60   28   64 1
    61   30   35 ar
    62   30   31 ar
    63   31   32 ar
    64   31   65 1
    65   32   33 ar
    66   32   66 1
    67   33   34 ar
    68   33   67 1
    69   34   35 ar
    70   34   68 1
    71   35   69 1
    72   36   37 ar
    73   36   70 1
    74   37   38 1
##########                 Name:              T540946
##########          Protonation:                   23
##########               SMILES:   c1cc(cc(c1)c2nc3c(c(ccc3[nH]2)O)C[NH+]4CC[C@@H](CC4)[NH+]5CCCC5)F
##########            Long Name:   4-[(4-pyrrolidin-1-ium-1-ylpiperidin-1-ium-1-yl)methyl]-1H-benzimidazol-5-ol
##########          FlexRecCode: 1
##########               Number:                   36
##########   Ligand Source File: /raidb/db2/rgc/tcams/tcams-0002072.db2.gz
##########           GlobalRank: 256
##########                 Rank:                    1
##########               Setnum:                   30
##########             Matchnum:                 3691
##########                Cloud:                    1
##########        Electrostatic:           -46.402416
##########        Van der Waals:           -27.856623
##########  Ligand Polar Desolv:            12.019545
########## Ligand Apolar Desolv:            -3.306756
##########      Internal Energy:             0.000000
##########      Receptor Energy: 0.0
########## Receptor Desolvation:             0.000000
########## Receptor Hydrophobic:             0.000000
##########         Total Energy: -65.55
##########        Ligand Charge:             2.000000
##########            Arbitrary:    +999.9990
##########     heavy atom count:   29
##########           pose count:    1
##########        Ligand Energy:             0.000000
# num electro vdwattr vdwrepu polsolv apolsol rdesolv rhydroe totalscore fullpol fullapo
#   1    8.97   -0.68    0.05   -4.69    0.26    0.00    0.00       3.90  -16.79    0.94
#   2   -3.19   -0.84    0.05    1.67   -0.07    0.00    0.00      -2.38    5.59   -0.25
#   3    4.01   -1.84    0.62   -1.61   -0.20    0.00    0.00       0.98   -3.78   -0.46
#   4    1.13   -2.10    0.45   -1.32   -0.23    0.00    0.00      -2.07   -2.73   -0.47
#   5   -0.89   -1.36    0.12   -0.11   -0.34    0.00    0.00      -2.58   -0.26   -0.78
#   6   10.74   -2.06    0.42   -5.94    0.55    0.00    0.00       3.71  -12.45    1.15
#   7   -4.77   -1.39    0.17    2.51   -0.83    0.00    0.00      -4.32    6.43   -2.14
#   8    4.45   -1.24    0.36   -3.31    0.59    0.00    0.00       0.85  -11.46    2.04
#   9   -1.31   -0.89    0.07    0.51   -0.23    0.00    0.00      -1.84    1.70   -0.75
#  10    2.35   -0.65    0.03   -0.69   -0.08    0.00    0.00       0.96   -2.92   -0.34
#  11   -0.45   -0.36    0.02    0.51   -0.06    0.00    0.00      -0.34    2.84   -0.35
#  12    5.10   -0.35    0.01   -2.85    0.05    0.00    0.00       1.96  -16.48    0.27
#  13   -7.21   -0.01    0.00    2.49    0.07    0.00    0.00      -4.66   19.55    0.54
#  14    0.01   -0.19    0.00   -0.02   -0.04    0.00    0.00      -0.24   -0.19   -0.30
#  15    1.51   -0.32    0.02   -1.49   -0.04    0.00    0.00      -0.33   -7.63   -0.22
#  16   -0.37   -0.44    0.04    0.42   -0.03    0.00    0.00      -0.37    2.01   -0.15
#  17    5.79   -1.22    0.79   -2.14   -0.06    0.00    0.00       3.15   -8.11   -0.22
#  18    0.02   -0.38    0.03   -0.01   -0.07    0.00    0.00      -0.42   -0.06   -0.38
#  19    9.25   -1.19    0.32   -4.76    0.08    0.00    0.00       3.70  -16.87    0.28
#  20  -15.24   -0.06    0.00    7.40    0.19    0.00    0.00      -7.71   21.84    0.56
#  21    0.29   -1.21    0.45    0.31   -0.12    0.00    0.00      -0.28    1.04   -0.39
#  22    4.02   -0.89    0.15   -2.07   -0.10    0.00    0.00       1.11   -6.09   -0.29
#  23    1.70   -0.54    0.04   -1.54   -0.08    0.00    0.00      -0.42   -5.84   -0.30
#  24    0.08   -0.46    0.04    0.14   -0.08    0.00    0.00      -0.28    0.67   -0.39
#  25    0.36   -1.54    0.21   -0.08   -0.18    0.00    0.00      -1.23   -0.18   -0.41
#  26    1.25   -1.24    0.12   -0.91   -0.16    0.00    0.00      -0.94   -2.53   -0.45
#  27   -1.24   -1.37    0.16    0.08   -0.13    0.00    0.00      -2.50    0.20   -0.34
#  28    1.22   -0.73    0.12   -0.65   -0.17    0.00    0.00      -0.20   -1.84   -0.48
#  29    1.80   -1.80    0.30   -1.40   -0.25    0.00    0.00      -1.35   -2.65   -0.47
#  30    1.51   -2.56    0.55   -0.96   -0.27    0.00    0.00      -1.73   -1.67   -0.47
#  31    1.06   -2.54    0.72   -0.65   -0.24    0.00    0.00      -1.64   -1.21   -0.45
#  32   -9.54   -0.02    0.00    3.39    0.25    0.00    0.00      -5.92   16.41    1.22
#  33   -5.09   -0.54    0.25    1.28   -0.10    0.00    0.00      -4.20    3.54   -0.28
#  34   -4.44   -0.70    0.20    1.23   -0.16    0.00    0.00      -3.87    2.21   -0.28
#  35   -9.15   -0.06    0.00    4.19    0.25    0.00    0.00      -4.76    8.77    0.53
#  36   -0.07   -0.24    0.08    0.92   -0.04    0.00    0.00       0.65    5.81   -0.27
#  37   -0.57   -0.08    0.00    0.66   -0.02    0.00    0.00      -0.01    8.45   -0.26
#  38   -0.63   -0.04    0.00    0.37   -0.01    0.00    0.00      -0.32    8.22   -0.27
#  39   -0.52   -0.05    0.00    0.16   -0.01    0.00    0.00      -0.41    3.59   -0.19
#  40   -0.50   -0.06    0.00    0.36   -0.01    0.00    0.00      -0.21    5.99   -0.24
#  41   -0.78   -0.21    0.03    1.19   -0.06    0.00    0.00       0.18    5.65   -0.28
#  42   -2.17   -0.05    0.00    0.48   -0.01    0.00    0.00      -1.75    9.64   -0.27
#  43   -5.67   -0.65    0.97    1.73   -0.06    0.00    0.00      -3.68    7.28   -0.24
#  44   -5.24   -0.93    1.24    2.01   -0.09    0.00    0.00      -3.00    6.33   -0.28
#  45   -3.59   -0.12    0.01    0.78   -0.03    0.00    0.00      -2.96    6.99   -0.28
#  46   -1.80   -0.08    0.00    0.73   -0.02    0.00    0.00      -1.17    8.68   -0.28
#  47   -6.39   -1.53    3.28    2.88   -0.10    0.00    0.00      -1.87    7.70   -0.26
#  48   -3.19   -0.13    0.01    1.08   -0.04    0.00    0.00      -2.27    7.28   -0.27
#  49   -3.92   -0.56    0.22    0.86   -0.10    0.00    0.00      -3.50    2.34   -0.28
#  50   -3.05   -0.17    0.01    0.30   -0.05    0.00    0.00      -2.96    1.56   -0.28
#  51   -0.81   -0.23    0.03    0.27   -0.06    0.00    0.00      -0.81    1.25   -0.28
#  52   -1.04   -0.13    0.01    0.21   -0.03    0.00    0.00      -0.97    1.88   -0.28
#  53   -0.81   -0.05    0.00    0.34   -0.01    0.00    0.00      -0.53    7.35   -0.25
#  54   -0.48   -0.20    0.03    1.02   -0.05    0.00    0.00       0.33    6.34   -0.28
#  55   -0.91   -0.21    0.03    0.47   -0.05    0.00    0.00      -0.68    2.47   -0.24
#  56   -2.46   -0.34    0.03    0.80   -0.11    0.00    0.00      -2.08    1.96   -0.28
#  57   -3.34   -0.81    0.32    2.57   -0.17    0.00    0.00      -1.42    4.35   -0.28
#  58   -2.17   -0.76    0.34    2.88   -0.14    0.00    0.00       0.14    5.46   -0.27

@<TRIPOS>MOLECULE
          T540946        23
   58    62     0     0     0



@<TRIPOS>ATOM
      1 O1         -0.0308    -6.0285    93.2318 O.3        1          -0.5024
      2 C1          0.8575    -6.0737    94.2604 C.ar       1           0.1491
      3 C2          0.6301    -5.3138    95.4047 C.ar       1          -0.1359
      4 C3          1.5217    -5.3501    96.4550 C.ar       1          -0.0399
      5 C4          2.6543    -6.1483    96.3744 C.ar       1           0.0417
      6 N1          3.7121    -6.3986    97.2295 N.pl3      1          -0.5841
      7 C5          4.5406    -7.2862    96.5985 C.2        1           0.3774
      8 N2          4.0530    -7.5878    95.4201 N.2        1          -0.5024
      9 C6          2.8915    -6.9187    95.2225 C.ar       1           0.0907
     10 C7          1.9758    -6.8767    94.1656 C.ar       1          -0.1603
     11 C8          2.2124    -7.7011    92.9265 C.3        1           0.0600
     12 N3          2.9954    -6.9194    91.9602 N.4        1          -0.3851
     13 H1          2.6727    -5.9635    91.9624 H          1           0.4254
     14 C9          2.8234    -7.4892    90.6184 C.3        1          -0.0012
     15 C10         3.5715    -6.6309    89.5960 C.3        1          -0.1681
     16 C11         5.0603    -6.6025    89.9533 C.3        1           0.0185
     17 C12         5.2223    -6.0762    91.3823 C.3        1          -0.1679
     18 C13         4.4134    -6.9565    92.3376 C.3        1          -0.0009
     19 N4          5.7725    -5.7188    89.0206 N.4        1          -0.3925
     20 H2          5.4021    -4.7820    89.0767 H          1           0.4281
     21 C14         7.2256    -5.7143    89.3280 C.3        1          -0.0091
     22 C15         7.8679    -5.2458    87.9981 C.3        1          -0.1459
     23 C16         6.9863    -5.9305    86.9286 C.3        1          -0.1461
     24 C17         5.6527    -6.2327    87.6390 C.3        1          -0.0116
     25 C18         5.7979    -7.8245    97.1621 C.ar       1          -0.0306
     26 C19         6.5683    -8.7230    96.4234 C.ar       1          -0.1327
     27 C20         7.7419    -9.2217    96.9557 C.ar       1           0.1123
     28 F1          8.4901   -10.0916    96.2424 F          1          -0.1248
     29 C21         8.1528    -8.8304    98.2201 C.ar       1          -0.1202
     30 C22         7.3917    -7.9403    98.9558 C.ar       1          -0.0877
     31 C23         6.2208    -7.4312    98.4322 C.ar       1          -0.0752
     32 H3         -0.7823    -5.4398    93.3868 H          1           0.4100
     33 H4         -0.2503    -4.6917    95.4696 H          1           0.1543
     34 H5          1.3394    -4.7579    97.3396 H          1           0.1458
     35 H6          3.8423    -6.0166    98.1115 H          1           0.4364
     36 H7          2.7602    -8.6056    93.1909 H          1           0.1455
     37 H8          1.2547    -7.9733    92.4827 H          1           0.1383
     38 H9          3.2217    -8.5037    90.6012 H          1           0.1438
     39 H10         1.7632    -7.5117    90.3669 H          1           0.1515
     40 H11         3.4440    -7.0566    88.6007 H          1           0.1334
     41 H12         3.1737    -5.6161    89.6122 H          1           0.1070
     42 H13         5.4703    -7.6104    89.8874 H          1           0.1533
     43 H14         6.2750    -6.1054    91.6638 H          1           0.1350
     44 H15         4.8590    -5.0499    91.4355 H          1           0.1101
     45 H16         4.5277    -6.5854    93.3560 H          1           0.1512
     46 H17         4.7768    -7.9827    92.2826 H          1           0.1413
     47 H18         7.4470    -5.0108    90.1307 H          1           0.1386
     48 H19         7.5671    -6.7161    89.5881 H          1           0.1374
     49 H20         7.8146    -4.1611    87.9051 H          1           0.1015
     50 H21         8.8996    -5.5900    87.9256 H          1           0.1224
     51 H22         6.8215    -5.2577    86.0868 H          1           0.1098
     52 H23         7.4530    -6.8551    86.5890 H          1           0.1081
     53 H24         5.4773    -7.3085    87.6568 H          1           0.1330
     54 H25         4.8343    -5.7288    87.1250 H          1           0.1355
     55 H26         6.2480    -9.0283    95.4382 H          1           0.1363
     56 H27         9.0706    -9.2223    98.6327 H          1           0.1504
     57 H28         7.7170    -7.6394    99.9407 H          1           0.1483
     58 H29         5.6303    -6.7328    99.0067 H          1           0.1432
@<TRIPOS>BOND
     1    1    2 1
     2    1   32 1
     3    2   10 ar
     4    2    3 ar
     5    3    4 ar
     6    3   33 1
     7    4    5 ar
     8    4   34 1
     9    5    9 ar
    10    5    6 1
    11    6    7 1
    12    6   35 1
    13    7    8 2
    14    7   25 1
    15    8    9 1
    16    9   10 ar
    17   10   11 1
    18   11   12 1
    19   11   36 1
    20   11   37 1
    21   12   13 1
    22   12   18 1
    23   12   14 1
    24   14   15 1
    25   14   38 1
    26   14   39 1
    27   15   16 1
    28   15   40 1
    29   15   41 1
    30   16   17 1
    31   16   19 1
    32   16   42 1
    33   17   18 1
    34   17   43 1
    35   17   44 1
    36   18   45 1
    37   18   46 1
    38   19   20 1
    39   19   24 1
    40   19   21 1
    41   21   22 1
    42   21   47 1
    43   21   48 1
    44   22   23 1
    45   22   49 1
    46   22   50 1
    47   23   24 1
    48   23   51 1
    49   23   52 1
    50   24   53 1
    51   24   54 1
    52   25   31 ar
    53   25   26 ar
    54   26   27 ar
    55   26   55 1
    56   27   28 1
    57   27   29 ar
    58   29   30 ar
    59   29   56 1
    60   30   31 ar
    61   30   57 1
    62   31   58 1
##########                 Name:              T526529
##########          Protonation:                   31
##########               SMILES:   c1ccc(c(c1)C[NH2+][C@@H]2CCCC[C@@H]2[NH2+]Cc3ccccc3O)O
##########            Long Name:   phenyl)methyl-[(1R,2S)-2-[(2-hydroxyphenyl)methylammonio]cyclohexyl]ammonium
##########          FlexRecCode: 1
##########               Number:                   24
##########   Ligand Source File: /raidb/db2/rgc/tcams/tcams-0000158.db2.gz
##########           GlobalRank: 257
##########                 Rank:                    1
##########               Setnum:                   45
##########             Matchnum:                  355
##########                Cloud:                    1
##########        Electrostatic:           -59.997566
##########        Van der Waals:           -18.171793
##########  Ligand Polar Desolv:            15.038680
########## Ligand Apolar Desolv:            -2.406042
##########      Internal Energy:             0.000000
##########      Receptor Energy: 0.0
########## Receptor Desolvation:             0.000000
########## Receptor Hydrophobic:             0.000000
##########         Total Energy: -65.54
##########        Ligand Charge:             2.000000
##########            Arbitrary:    +999.9990
##########     heavy atom count:   24
##########           pose count:    1
##########        Ligand Energy:             0.000000
# num electro vdwattr vdwrepu polsolv apolsol rdesolv rhydroe totalscore fullpol fullapo
#   1    7.27   -0.86    0.06   -6.22    0.38    0.00    0.00       0.63  -18.02    1.11
#   2   -2.36   -1.10    0.08    1.85   -0.11    0.00    0.00      -1.63    5.08   -0.31
#   3    2.05   -1.66    0.31   -2.34   -0.20    0.00    0.00      -1.84   -5.35   -0.46
#   4    0.96   -2.44    2.11   -1.63   -0.23    0.00    0.00      -1.23   -3.34   -0.47
#   5    2.72   -2.83    1.84   -2.31   -0.23    0.00    0.00      -0.80   -4.68   -0.47
#   6    2.33   -2.07    0.47   -1.05   -0.22    0.00    0.00      -0.54   -2.20   -0.46
#   7    5.88   -1.20    0.13   -1.84   -0.14    0.00    0.00       2.83   -4.75   -0.37
#   8   -1.84   -1.04    0.41    1.08   -0.13    0.00    0.00      -1.51    3.08   -0.37
#   9   16.10   -0.98    0.39   -6.42    0.14    0.00    0.00       9.23  -26.63    0.58
#  10  -15.31   -0.03    0.00    4.75    0.09    0.00    0.00     -10.51   24.08    0.44
#  11   -8.01   -0.01    0.00    2.15    0.03    0.00    0.00      -5.84   22.60    0.32
#  12   -0.33   -0.87    0.24    0.69   -0.06    0.00    0.00      -0.33    2.57   -0.23
#  13    2.28   -0.42    0.03   -1.37   -0.05    0.00    0.00       0.47   -6.51   -0.22
#  14    1.11   -0.25    0.01   -0.90   -0.03    0.00    0.00      -0.06   -6.50   -0.24
#  15    0.62   -0.17    0.00   -0.54   -0.03    0.00    0.00      -0.10   -5.33   -0.25
#  16    1.71   -0.18    0.00   -0.86   -0.02    0.00    0.00       0.65   -7.89   -0.20
#  17   -0.12   -0.50    0.06    0.55   -0.04    0.00    0.00      -0.05    2.49   -0.20
#  18   16.50   -1.40    0.73   -7.02    0.15    0.00    0.00       8.95  -26.62    0.57
#  19  -21.66   -0.12    0.02    8.90    0.18    0.00    0.00     -12.68   27.27    0.56
#  20  -12.12   -0.02    0.00    4.48    0.08    0.00    0.00      -7.58   23.54    0.44
#  21   -1.10   -0.48    0.05    0.69   -0.08    0.00    0.00      -0.93    3.24   -0.37
#  22    4.97   -0.96    0.14   -1.23   -0.10    0.00    0.00       2.83   -4.68   -0.37
#  23    2.35   -2.30    1.21   -0.76   -0.18    0.00    0.00       0.34   -1.94   -0.46
#  24    3.74   -2.59    1.22   -2.12   -0.21    0.00    0.00       0.04   -4.82   -0.47
#  25    1.23   -1.37    0.22   -1.26   -0.17    0.00    0.00      -1.36   -3.42   -0.47
#  26    1.87   -0.63    0.04   -1.32   -0.11    0.00    0.00      -0.15   -5.41   -0.46
#  27   -2.09   -0.53    0.03    0.88   -0.06    0.00    0.00      -1.77    4.73   -0.31
#  28    5.68   -0.25    0.01   -2.27    0.14    0.00    0.00       3.31  -17.53    1.11
#  29   -6.94   -0.01    0.00    1.96    0.14    0.00    0.00      -4.85   17.04    1.22
#  30   -1.64   -0.49    0.15    0.71   -0.11    0.00    0.00      -1.38    1.78   -0.28
#  31   -2.38   -0.45    0.15    0.44   -0.13    0.00    0.00      -2.38    0.95   -0.28
#  32   -3.59   -0.90    0.83    1.08   -0.15    0.00    0.00      -2.73    2.00   -0.28
#  33   -6.37   -0.78    0.69    3.59   -0.14    0.00    0.00      -3.01    6.96   -0.28
#  34   -4.34   -0.17    0.01    1.52   -0.04    0.00    0.00      -3.03    8.74   -0.22
#  35   -7.65   -1.04    2.54    3.93   -0.10    0.00    0.00      -2.32   10.54   -0.27
#  36   -7.59   -0.83    0.84    5.09   -0.09    0.00    0.00      -2.58   15.32   -0.28
#  37   -2.09   -0.13    0.01    0.74   -0.03    0.00    0.00      -1.51    5.45   -0.21
#  38   -1.34   -0.17    0.03    0.77   -0.04    0.00    0.00      -0.75    5.26   -0.28
#  39   -0.42   -0.11    0.01    0.43   -0.02    0.00    0.00      -0.11    4.15   -0.22
#  40   -0.45   -0.07    0.00    0.02   -0.02    0.00    0.00      -0.51    0.26   -0.28
#  41   -0.09   -0.07    0.01    0.02   -0.02    0.00    0.00      -0.15    0.26   -0.28
#  42   -0.36   -0.03    0.00    0.10   -0.01    0.00    0.00      -0.31    2.56   -0.28
#  43   -0.95   -0.06    0.00    0.32   -0.01    0.00    0.00      -0.70    5.86   -0.23
#  44   -0.94   -0.03    0.00    0.19   -0.01    0.00    0.00      -0.79    5.42   -0.21
#  45   -2.71   -0.13    0.01    1.98   -0.04    0.00    0.00      -0.91   13.01   -0.28
#  46   -1.84   -0.05    0.00    0.39   -0.01    0.00    0.00      -1.51    8.24   -0.21
#  47   -2.49   -0.18    0.02    1.75   -0.05    0.00    0.00      -0.94   10.51   -0.27
#  48   -5.96   -0.75    0.45    3.25   -0.11    0.00    0.00      -3.13    7.97   -0.28
#  49   -5.44   -1.12    1.44    1.13   -0.14    0.00    0.00      -4.12    2.24   -0.28
#  50   -3.12   -0.32    0.07    0.30   -0.09    0.00    0.00      -3.17    0.92   -0.28
#  51   -1.06   -0.08    0.00    0.10   -0.02    0.00    0.00      -1.05    1.54   -0.28
#  52   -4.66    0.00    0.00    0.67    0.05    0.00    0.00      -3.94   16.03    1.22

@<TRIPOS>MOLECULE
          T526529        31
   52    54     0     0     0



@<TRIPOS>ATOM
      1 O1          3.5760    -6.9678    95.8894 O.3        1          -0.5121
      2 C1          4.8662    -6.5942    96.0965 C.ar       1           0.1274
      3 C2          5.5424    -7.0287    97.2275 C.ar       1          -0.1358
      4 C3          6.8537    -6.6481    97.4356 C.ar       1          -0.0567
      5 C4          7.4927    -5.8346    96.5178 C.ar       1          -0.1167
      6 C5          6.8209    -5.3999    95.3904 C.ar       1          -0.0715
      7 C6          5.5110    -5.7826    95.1748 C.ar       1          -0.2043
      8 C7          4.7813    -5.3134    93.9425 C.3        1           0.0506
      9 N1          4.9786    -6.2836    92.8574 N.4        1          -0.5198
     10 H1          5.9636    -6.3654    92.6543 H          1           0.4156
     11 H2          4.6177    -7.1825    93.1401 H          1           0.4319
     12 C8          4.2673    -5.8262    91.6562 C.3        1           0.0109
     13 C9          2.7815    -6.1690    91.7819 C.3        1          -0.1420
     14 C10         2.6178    -7.6834    91.9259 C.3        1          -0.1461
     15 C11         3.1990    -8.3787    90.6933 C.3        1          -0.1267
     16 C12         4.6849    -8.0360    90.5676 C.3        1          -0.1570
     17 C13         4.8485    -6.5216    90.4234 C.3        1           0.0053
     18 N2          6.2750    -6.1926    90.3027 N.4        1          -0.5198
     19 H3          6.4170    -5.2211    90.5352 H          1           0.4347
     20 H4          6.8083    -6.7710    90.9345 H          1           0.4185
     21 C14         6.7186    -6.4358    88.9237 C.3        1           0.0526
     22 C15         8.1821    -6.0983    88.7998 C.ar       1          -0.2049
     23 C16         8.5697    -4.8167    88.4585 C.ar       1          -0.0708
     24 C17         9.9120    -4.5066    88.3443 C.ar       1          -0.1176
     25 C18        10.8702    -5.4774    88.5716 C.ar       1          -0.0567
     26 C19        10.4880    -6.7599    88.9133 C.ar       1          -0.1363
     27 C20         9.1414    -7.0724    89.0339 C.ar       1           0.1283
     28 O2          8.7630    -8.3322    89.3756 O.3        1          -0.5109
     29 H5          3.1918    -6.6191    95.0732 H          1           0.4086
     30 H6          5.0437    -7.6639    97.9447 H          1           0.1459
     31 H7          7.3803    -6.9857    98.3159 H          1           0.1465
     32 H8          8.5180    -5.5380    96.6823 H          1           0.1452
     33 H9          7.3220    -4.7643    94.6753 H          1           0.1398
     34 H10         3.7173    -5.2250    94.1619 H          1           0.1492
     35 H11         5.1712    -4.3424    93.6371 H          1           0.1432
     36 H12         4.3839    -4.7473    91.5536 H          1           0.1668
     37 H13         2.3673    -5.6737    92.6601 H          1           0.1129
     38 H14         2.2536    -5.8295    90.8907 H          1           0.1283
     39 H15         3.1455    -8.0227    92.8172 H          1           0.0652
     40 H16         1.5592    -7.9276    92.0156 H          1           0.1127
     41 H17         3.0824    -9.4576    90.7959 H          1           0.1050
     42 H18         2.6712    -8.0393    89.8021 H          1           0.0950
     43 H19         5.2127    -8.3754    91.4589 H          1           0.0831
     44 H20         5.0989    -8.5314    89.6893 H          1           0.1185
     45 H21         4.3207    -6.1822    89.5323 H          1           0.1872
     46 H22         6.5654    -7.4854    88.6725 H          1           0.1426
     47 H23         6.1427    -5.8110    88.2411 H          1           0.1492
     48 H24         7.8232    -4.0567    88.2806 H          1           0.1401
     49 H25        10.2129    -3.5044    88.0767 H          1           0.1448
     50 H26        11.9183    -5.2327    88.4813 H          1           0.1461
     51 H27        11.2367    -7.5178    89.0908 H          1           0.1457
     52 H28         7.8053    -8.4539    89.4308 H          1           0.4083
@<TRIPOS>BOND
     1    1    2 1
     2    1   29 1
     3    2    7 ar
     4    2    3 ar
     5    3    4 ar
     6    3   30 1
     7    4    5 ar
     8    4   31 1
     9    5    6 ar
    10    5   32 1
    11    6    7 ar
    12    6   33 1
    13    7    8 1
    14    8    9 1
    15    8   34 1
    16    8   35 1
    17    9   10 1
    18    9   11 1
    19    9   12 1
    20   12   17 1
    21   12   13 1
    22   12   36 1
    23   13   14 1
    24   13   37 1
    25   13   38 1
    26   14   15 1
    27   14   39 1
    28   14   40 1
    29   15   16 1
    30   15   41 1
    31   15   42 1
    32   16   17 1
    33   16   43 1
    34   16   44 1
    35   17   18 1
    36   17   45 1
    37   18   19 1
    38   18   20 1
    39   18   21 1
    40   21   22 1
    41   21   46 1
    42   21   47 1
    43   22   27 ar
    44   22   23 ar
    45   23   24 ar
    46   23   48 1
    47   24   25 ar
    48   24   49 1
    49   25   26 ar
    50   25   50 1
    51   26   27 ar
    52   26   51 1
    53   27   28 1
    54   28   52 1
##########                 Name:              T533430
##########          Protonation:                   24
##########               SMILES:   C[C@H](CCc1ccc(cc1)OC)[NH+]2C[C@@H]([C@@H](C2)[NH3+])c3cn(c4c3ccnc4)C
##########            Long Name:   propyl]-4-(1-methylpyrrolo[2,3-c]pyridin-3-yl)pyrrolidin-1-ium-3-yl]ammonium
##########          FlexRecCode: 1
##########               Number:                  224
##########   Ligand Source File: /raidb/db2/rgc/tcams/tcams-0001086.db2.gz
##########           GlobalRank: 258
##########                 Rank:                    1
##########               Setnum:                   39
##########             Matchnum:                 1729
##########                Cloud:                    1
##########        Electrostatic:           -54.472137
##########        Van der Waals:           -26.033642
##########  Ligand Polar Desolv:            17.267529
########## Ligand Apolar Desolv:            -2.293557
##########      Internal Energy:             0.000000
##########      Receptor Energy: 0.0
########## Receptor Desolvation:             0.000000
########## Receptor Hydrophobic:             0.000000
##########         Total Energy: -65.53
##########        Ligand Charge:             2.000000
##########            Arbitrary:    +999.9990
##########     heavy atom count:   28
##########           pose count:    1
##########        Ligand Energy:             0.000000
# num electro vdwattr vdwrepu polsolv apolsol rdesolv rhydroe totalscore fullpol fullapo
#   1   -0.57   -2.17    0.86    0.18    0.02    0.00    0.00      -1.67    0.27    0.03
#   2    7.58   -2.41    0.53   -2.37    0.59    0.00    0.00       3.92   -3.76    0.93
#   3   -3.47   -1.77    0.20    0.12   -0.17    0.00    0.00      -5.08    0.22   -0.31
#   4    5.07   -2.13    0.66   -1.80   -0.20    0.00    0.00       1.60   -3.96   -0.43
#   5    1.47   -1.20    0.12   -0.71   -0.17    0.00    0.00      -0.49   -1.94   -0.46
#   6    2.13   -1.06    0.17   -0.72   -0.11    0.00    0.00       0.42   -2.32   -0.36
#   7    0.50   -0.49    0.08   -0.57   -0.05    0.00    0.00      -0.52   -2.68   -0.22
#   8    2.11   -0.73    0.20   -1.51   -0.05    0.00    0.00       0.02   -6.10   -0.19
#   9   -0.35   -0.37    0.02    0.84   -0.03    0.00    0.00       0.11    4.14   -0.17
#  10    1.03   -0.58    0.08   -2.34   -0.04    0.00    0.00      -1.85   -9.45   -0.17
#  11    9.88   -0.68    0.11   -4.69    0.06    0.00    0.00       4.68  -20.97    0.28
#  12  -16.51   -0.04    0.00    6.58    0.12    0.00    0.00      -9.85   26.35    0.48
#  13    0.43   -0.29    0.02   -0.24   -0.05    0.00    0.00      -0.14   -1.61   -0.36
#  14   -0.27   -0.38    0.03    0.79   -0.08    0.00    0.00       0.09    3.93   -0.38
#  15   21.39   -1.92    1.47  -11.26    0.19    0.00    0.00       9.88  -37.54    0.63
#  16  -21.50   -0.11    0.03    7.90    0.11    0.00    0.00     -13.57   25.56    0.34
#  17  -12.87   -0.06    0.00    7.68    0.17    0.00    0.00      -5.07   24.92    0.54
#  18  -14.71   -0.03    0.00    8.13    0.16    0.00    0.00      -6.45   29.38    0.58
#  19    0.39   -0.36    0.02   -0.23   -0.05    0.00    0.00      -0.23   -1.14   -0.23
#  20    0.11   -0.40    0.03   -0.08   -0.07    0.00    0.00      -0.40   -0.38   -0.35
#  21    3.49   -0.85    0.08   -1.92   -0.07    0.00    0.00       0.74   -7.42   -0.26
#  22   -0.81   -1.07    0.13    1.29   -0.22    0.00    0.00      -0.68    4.16   -0.72
#  23    7.44   -1.48    0.28   -5.83    0.50    0.00    0.00       0.91  -16.13    1.37
#  24   -1.02   -1.47    0.46    0.77   -0.28    0.00    0.00      -1.53    1.63   -0.59
#  25   -0.39   -1.49    0.41    0.03   -0.24    0.00    0.00      -1.69    0.08   -0.74
#  26   -1.42   -1.39    0.25    0.14   -0.35    0.00    0.00      -2.77    0.40   -0.97
#  27    3.62   -1.11    0.08   -3.51    0.82    0.00    0.00      -0.10   -8.69    2.04
#  28   -0.64   -1.12    0.11   -0.42   -0.34    0.00    0.00      -2.41   -1.20   -0.97
#  29    0.66   -1.13    0.19   -0.65   -0.13    0.00    0.00      -1.06   -2.36   -0.48
#  30    0.46   -1.12    0.20   -0.51   -0.12    0.00    0.00      -1.10   -1.86   -0.44
#  31    1.17   -1.37    0.25   -0.60   -0.16    0.00    0.00      -0.72   -1.68   -0.46
#  32    3.52   -1.65    0.30   -1.58   -0.22    0.00    0.00       0.36   -3.28   -0.46
#  33   -2.59   -1.08    0.67    0.76   -0.17    0.00    0.00      -2.42    1.23   -0.28
#  34   -1.36   -0.49    0.07    0.63   -0.15    0.00    0.00      -1.31    1.15   -0.27
#  35   -1.43   -1.02    1.87    0.41   -0.14    0.00    0.00      -0.31    0.79   -0.27
#  36   -3.29   -1.19    3.14    0.76   -0.09    0.00    0.00      -0.67    1.83   -0.22
#  37   -2.73   -0.19    0.01    0.93   -0.06    0.00    0.00      -2.04    4.55   -0.28
#  38   -0.42   -0.07    0.00    0.27   -0.02    0.00    0.00      -0.24    3.57   -0.28
#  39   -0.24   -0.16    0.04    0.40   -0.03    0.00    0.00       0.01    3.02   -0.23
#  40   -1.54   -0.86    1.37    1.25   -0.08    0.00    0.00       0.14    4.18   -0.28
#  41   -1.78   -0.13    0.01    0.60   -0.03    0.00    0.00      -1.34    4.30   -0.23
#  42   -1.11   -0.05    0.00    0.43   -0.01    0.00    0.00      -0.74    9.04   -0.27
#  43   -0.39   -0.08    0.00    0.64   -0.02    0.00    0.00       0.15    6.47   -0.24
#  44   -0.24   -0.15    0.02    0.20   -0.03    0.00    0.00      -0.21    1.33   -0.23
#  45   -0.88   -0.43    0.13    1.39   -0.09    0.00    0.00       0.11    4.33   -0.28
#  46   -1.73   -0.04    0.00    0.45   -0.01    0.00    0.00      -1.33   11.75   -0.27
#  47   -3.07   -0.10    0.01    1.46   -0.03    0.00    0.00      -1.73   14.04   -0.26
#  48   -2.61   -0.07    0.00    0.89   -0.02    0.00    0.00      -1.81   13.64   -0.28
#  49   -0.81   -0.14    0.02    0.91   -0.03    0.00    0.00      -0.06    7.51   -0.28
#  50   -4.66   -0.18    0.03    0.83   -0.03    0.00    0.00      -4.02    6.05   -0.25
#  51   -2.08   -0.09    0.00    0.73   -0.02    0.00    0.00      -1.45    9.25   -0.27
#  52   -4.82   -0.21    0.02    3.37   -0.04    0.00    0.00      -1.68   17.22   -0.20
#  53   -1.69   -0.41    0.08    0.56   -0.11    0.00    0.00      -1.56    1.49   -0.28
#  54   -2.41   -0.70    0.40    0.43   -0.13    0.00    0.00      -2.41    0.89   -0.28
#  55   -1.62   -0.58    0.70    2.36   -0.09    0.00    0.00       0.76    7.02   -0.28
#  56   -2.06   -0.26    0.02    0.43   -0.07    0.00    0.00      -1.94    1.67   -0.28
#  57   -1.76   -0.26    0.03    0.42   -0.07    0.00    0.00      -1.64    1.65   -0.28
#  58   -0.48   -0.20    0.04    1.07   -0.05    0.00    0.00       0.38    6.49   -0.28
#  59   -1.34   -0.28    0.07    1.40   -0.08    0.00    0.00      -0.24    4.95   -0.28
#  60   -3.25   -0.42    0.12    0.38   -0.10    0.00    0.00      -3.27    1.08   -0.28

@<TRIPOS>MOLECULE
          T533430        24
   60    63     0     0     0



@<TRIPOS>ATOM
      1 C1         -3.6992    -2.2247    94.1108 C.3        1           0.0238
      2 O1         -2.3880    -2.5164    94.5987 O.3        1          -0.3124
      3 C2         -1.6134    -3.3324    93.8363 C.ar       1           0.1432
      4 C3         -0.3317    -3.6616    94.2521 C.ar       1          -0.2070
      5 C4          0.4533    -4.4917    93.4757 C.ar       1          -0.0710
      6 C5         -0.0372    -4.9939    92.2845 C.ar       1          -0.1497
      7 C6          0.8216    -5.8989    91.4392 C.3        1          -0.0650
      8 C7          2.2948    -5.5391    91.6415 C.3        1          -0.1405
      9 C8          3.1667    -6.4580    90.7834 C.3        1           0.0264
     10 C9          3.1729    -5.9526    89.3393 C.3        1          -0.1890
     11 N1          4.5391    -6.4602    91.3073 N.4        1          -0.4034
     12 H1          4.9179    -5.5253    91.2838 H          1           0.4171
     13 C10         5.3768    -7.3585    90.5086 C.3        1          -0.0241
     14 C11         6.4484    -7.7888    91.5197 C.3        1           0.0139
     15 N2          7.3448    -6.6762    91.8613 N.4        1          -0.6375
     16 H2          6.8049    -5.9145    92.2438 H          1           0.4206
     17 H3          8.0202    -6.9859    92.5439 H          1           0.4552
     18 H4          7.8250    -6.3640    91.0305 H          1           0.4433
     19 C12         5.5247    -8.1531    92.6987 C.3        1          -0.0282
     20 C13         4.5483    -6.9688    92.6824 C.3        1          -0.0053
     21 C14         6.2933    -8.2059    93.9938 C.2        1          -0.2467
     22 C15         6.4971    -7.1855    94.8454 C.2        1           0.0384
     23 N3          7.2390    -7.6090    95.9123 N.pl3      1          -0.4371
     24 C16         7.6521    -6.7664    97.0373 C.3        1           0.0539
     25 C17         7.5396    -8.9440    95.7731 C.ar       1           0.0345
     26 C18         8.2459    -9.8664    96.5336 C.ar       1           0.1416
     27 N4          8.3642   -11.1131    96.1243 N.ar       1          -0.4455
     28 C19         7.8299   -11.5452    94.9938 C.ar       1           0.0928
     29 C20         7.1180   -10.7101    94.1797 C.ar       1          -0.1346
     30 C21         6.9529    -9.3762    94.5655 C.ar       1          -0.0542
     31 C22        -1.3145    -4.6675    91.8678 C.ar       1          -0.0728
     32 C23        -2.1055    -3.8420    92.6432 C.ar       1          -0.1500
     33 H5         -4.2094    -1.5647    94.8125 H          1           0.1090
     34 H6         -3.6252    -1.7350    93.1397 H          1           0.0576
     35 H7         -4.2632    -3.1518    94.0082 H          1           0.0605
     36 H8          0.0521    -3.2691    95.1823 H          1           0.1332
     37 H9          1.4512    -4.7485    93.7992 H          1           0.1232
     38 H10         0.6568    -6.9353    91.7339 H          1           0.0830
     39 H11         0.5578    -5.7734    90.3890 H          1           0.0838
     40 H12         2.4594    -4.5027    91.3470 H          1           0.0892
     41 H13         2.5586    -5.6647    92.6917 H          1           0.0904
     42 H14         2.7651    -7.4708    90.8121 H          1           0.1495
     43 H15         3.7939    -6.6071    88.7279 H          1           0.0813
     44 H16         2.1545    -5.9507    88.9506 H          1           0.1181
     45 H17         3.5744    -4.9397    89.3105 H          1           0.0823
     46 H18         4.8036    -8.2176    90.1600 H          1           0.1820
     47 H19         5.8252    -6.8280    89.6686 H          1           0.1552
     48 H20         7.0077    -8.6547    91.1656 H          1           0.1957
     49 H21         5.0039    -9.0925    92.5133 H          1           0.1627
     50 H22         4.8911    -6.1927    93.3667 H          1           0.1546
     51 H23         3.5499    -7.3028    92.9649 H          1           0.1583
     52 H24         6.1290    -6.1797    94.7068 H          1           0.1620
     53 H25         8.2326    -7.3611    97.7426 H          1           0.0939
     54 H26         8.2623    -5.9419    96.6687 H          1           0.1038
     55 H27         6.7688    -6.3694    97.5375 H          1           0.0960
     56 H28         8.7004    -9.5606    97.4644 H          1           0.1656
     57 H29         7.9594   -12.5788    94.7084 H          1           0.1707
     58 H30         6.6871   -11.0743    93.2588 H          1           0.1435
     59 H31        -1.6956    -5.0612    90.9371 H          1           0.1277
     60 H32        -3.1045    -3.5903    92.3191 H          1           0.1361
@<TRIPOS>BOND
     1    1    2 1
     2    1   33 1
     3    1   34 1
     4    1   35 1
     5    2    3 1
     6    3   32 ar
     7    3    4 ar
     8    4    5 ar
     9    4   36 1
    10    5    6 ar
    11    5   37 1
    12    6    7 1
    13    6   31 ar
    14    7    8 1
    15    7   38 1
    16    7   39 1
    17    8    9 1
    18    8   40 1
    19    8   41 1
    20    9   10 1
    21    9   11 1
    22    9   42 1
    23   10   43 1
    24   10   44 1
    25   10   45 1
    26   11   12 1
    27   11   20 1
    28   11   13 1
    29   13   14 1
    30   13   46 1
    31   13   47 1
    32   14   15 1
    33   14   19 1
    34   14   48 1
    35   15   16 1
    36   15   17 1
    37   15   18 1
    38   19   20 1
    39   19   21 1
    40   19   49 1
    41   20   50 1
    42   20   51 1
    43   21   30 1
    44   21   22 2
    45   22   23 1
    46   22   52 1
    47   23   24 1
    48   23   25 1
    49   24   53 1
    50   24   54 1
    51   24   55 1
    52   25   30 ar
    53   25   26 ar
    54   26   27 ar
    55   26   56 1
    56   27   28 ar
    57   28   29 ar
    58   28   57 1
    59   29   30 ar
    60   29   58 1
    61   31   32 ar
    62   31   59 1
    63   32   60 1
##########                 Name:              T540004
##########          Protonation:                   99
##########               SMILES:   C=CCOC(=O)N1CC[C@H](C1)C[NH2+]Cc2cccc(c2)c3ccc(s3)c4[nH]c5ccccc5n4
##########            Long Name:   n-3-yl]methyl-[[3-[5-(1H-benzimidazol-2-yl)-2-thienyl]phenyl]methyl]ammonium
##########          FlexRecCode: 1
##########               Number:                  146
##########   Ligand Source File: /raidb/db2/rgc/tcams/tcams-0001994.db2.gz
##########           GlobalRank: 259
##########                 Rank:                    1
##########               Setnum:                  322
##########             Matchnum:                 4573
##########                Cloud:                    1
##########        Electrostatic:           -52.088478
##########        Van der Waals:           -22.704481
##########  Ligand Polar Desolv:            12.466413
########## Ligand Apolar Desolv:            -3.185264
##########      Internal Energy:             0.000000
##########      Receptor Energy: 0.0
########## Receptor Desolvation:             0.000000
########## Receptor Hydrophobic:             0.000000
##########         Total Energy: -65.51
##########        Ligand Charge:             1.000000
##########            Arbitrary:    +999.9990
##########     heavy atom count:   34
##########           pose count:    1
##########        Ligand Energy:             0.000000
# num electro vdwattr vdwrepu polsolv apolsol rdesolv rhydroe totalscore fullpol fullapo
#   1    3.78   -2.02    0.46   -0.69   -0.18    0.00    0.00       1.35   -1.29   -0.33
#   2    4.10   -2.17    0.81   -0.63   -0.22    0.00    0.00       1.90   -1.31   -0.46
#   3   -2.04   -1.30    0.65    0.25   -0.04    0.00    0.00      -2.47    0.71   -0.11
#   4    7.02   -1.43    0.85   -0.80    0.09    0.00    0.00       5.74   -2.45    0.28
#   5   -6.99   -0.68    0.05    1.16   -0.12    0.00    0.00      -6.58    5.00   -0.52
#   6    1.63   -0.43    0.01   -0.56   -0.08    0.00    0.00       0.58   -2.98   -0.40
#   7    8.46   -0.55    0.01   -1.99    0.57    0.00    0.00       6.51   -8.98    2.59
#   8   -2.15   -0.53    0.02    0.36   -0.16    0.00    0.00      -2.45    1.19   -0.52
#   9    2.71   -0.52    0.02   -0.81   -0.08    0.00    0.00       1.31   -2.71   -0.27
#  10    3.17   -0.48    0.02   -0.70   -0.05    0.00    0.00       1.97   -2.83   -0.20
#  11   -0.02   -0.59    0.10    0.24   -0.09    0.00    0.00      -0.36    1.02   -0.36
#  12   20.29   -1.80    1.75   -7.61    0.29    0.00    0.00      12.91  -19.38    0.73
#  13  -24.11   -0.11    0.03    6.24    0.19    0.00    0.00     -17.75   17.13    0.53
#  14  -13.55   -0.02    0.00    4.21    0.13    0.00    0.00      -9.23   18.47    0.57
#  15   -1.77   -1.82    1.51    1.01   -0.17    0.00    0.00      -1.24    2.45   -0.42
#  16    3.41   -1.49    0.41   -1.03   -0.12    0.00    0.00       1.18   -3.06   -0.37
#  17    1.60   -1.41    0.20   -0.61   -0.18    0.00    0.00      -0.39   -1.57   -0.45
#  18    1.23   -1.31    0.12   -1.15   -0.19    0.00    0.00      -1.29   -2.89   -0.47
#  19    0.46   -1.29    0.14   -0.60   -0.16    0.00    0.00      -1.45   -1.72   -0.46
#  20   -0.09   -1.15    0.18   -0.37   -0.12    0.00    0.00      -1.55   -1.29   -0.41
#  21    1.27   -1.16    0.27   -0.43   -0.12    0.00    0.00      -0.18   -1.62   -0.44
#  22    0.45   -1.33    0.35   -0.16   -0.09    0.00    0.00      -0.77   -0.58   -0.31
#  23    0.74   -1.42    0.26   -0.66   -0.15    0.00    0.00      -1.23   -2.00   -0.45
#  24    0.94   -1.94    0.61   -0.14   -0.16    0.00    0.00      -0.69   -0.43   -0.47
#  25    0.36   -1.37    0.56   -0.38   -0.08    0.00    0.00      -0.91   -1.49   -0.31
#  26   -0.13   -2.72    3.49    0.66   -0.16    0.00    0.00       1.14    3.28   -0.81
#  27   -1.18   -0.80    0.14    0.20   -0.47    0.00    0.00      -2.11    0.93   -2.19
#  28    0.18   -0.34    0.03    0.10    0.27    0.00    0.00       0.23    0.78    2.13
#  29   -0.03   -0.20    0.01   -0.01   -0.07    0.00    0.00      -0.29   -0.13   -0.79
#  30    0.03   -0.08    0.00   -0.01   -0.02    0.00    0.00      -0.08   -0.20   -0.47
#  31    0.05   -0.07    0.00   -0.01   -0.01    0.00    0.00      -0.05   -0.50   -0.47
#  32    0.04   -0.11    0.00   -0.03   -0.02    0.00    0.00      -0.12   -0.67   -0.47
#  33    0.09   -0.34    0.03   -0.07   -0.05    0.00    0.00      -0.34   -0.67   -0.47
#  34   -0.05   -0.50    0.09    0.01   -0.10    0.00    0.00      -0.55    0.06   -0.78
#  35    3.83   -1.95    2.38   -0.72    0.26    0.00    0.00       3.81   -3.20    1.18
#  36   -1.44   -0.30    0.01    0.30   -0.08    0.00    0.00      -1.51    1.73   -0.44
#  37   -2.75   -0.41    0.09    0.31   -0.10    0.00    0.00      -2.85    0.86   -0.27
#  38   -2.76   -0.40    0.04    0.55   -0.13    0.00    0.00      -2.71    1.14   -0.28
#  39   -2.90   -0.68    0.68    0.41   -0.11    0.00    0.00      -2.60    1.07   -0.28
#  40   -1.38   -0.61    0.54    0.13   -0.09    0.00    0.00      -1.42    0.38   -0.28
#  41   -0.81   -0.30    0.07    0.09   -0.08    0.00    0.00      -1.03    0.31   -0.27
#  42   -2.09   -0.21    0.01    0.26   -0.06    0.00    0.00      -2.09    1.16   -0.28
#  43   -2.14   -0.20    0.02    0.11   -0.06    0.00    0.00      -2.27    0.54   -0.28
#  44   -2.82   -0.25    0.02    0.90   -0.07    0.00    0.00      -2.22    3.56   -0.28
#  45   -1.68   -0.14    0.00    0.35   -0.04    0.00    0.00      -1.51    2.65   -0.28
#  46   -3.38   -0.26    0.04    1.20   -0.07    0.00    0.00      -2.47    5.10   -0.28
#  47   -2.37   -0.11    0.00    0.86   -0.03    0.00    0.00      -1.65    8.00   -0.28
#  48   -4.35   -0.21    0.06    0.91   -0.04    0.00    0.00      -3.64    6.04   -0.27
#  49   -6.34   -0.99    1.88    2.62   -0.10    0.00    0.00      -2.93    7.39   -0.28
#  50   -5.65   -0.61    0.23    3.46   -0.14    0.00    0.00      -2.70    7.00   -0.28
#  51   -2.66   -0.39    0.15    1.83   -0.09    0.00    0.00      -1.17    5.51   -0.28
#  52   -1.87   -0.32    0.04    0.65   -0.09    0.00    0.00      -1.58    2.07   -0.28
#  53   -0.62   -0.30    0.04    0.30   -0.07    0.00    0.00      -0.66    1.09   -0.24
#  54   -2.10   -0.15    0.02    0.70   -0.04    0.00    0.00      -1.57    4.95   -0.27
#  55   -1.27   -0.23    0.02    0.32   -0.06    0.00    0.00      -1.22    1.34   -0.25
#  56   -3.57   -1.06    1.59    0.01   -0.10    0.00    0.00      -3.12    0.03   -0.28
#  57   -0.06   -0.01    0.00    0.00    0.00    0.00    0.00      -0.07    0.01   -0.28
#  58   -0.04   -0.01    0.00    0.01    0.00    0.00    0.00      -0.03    1.12   -0.28
#  59   -0.05   -0.01    0.00    0.03    0.00    0.00    0.00      -0.04    1.78   -0.28
#  60   -0.12   -0.12    0.02    0.19   -0.03    0.00    0.00      -0.06    1.83   -0.28
#  61   -9.26   -0.25    0.24    1.31    0.16    0.00    0.00      -7.81    4.77    0.59
#  62   -0.50   -0.12    0.01    0.29   -0.03    0.00    0.00      -0.34    2.65   -0.26
#  63   -0.84   -0.07    0.00    0.12   -0.02    0.00    0.00      -0.81    1.87   -0.28

@<TRIPOS>MOLECULE
          T540004        99
   63    67     0     0     0



@<TRIPOS>ATOM
      1 C1         -2.5606    -3.7761    93.7750 C.2        1          -0.1542
      2 C2         -2.7348    -3.9573    92.4893 C.2        1          -0.1710
      3 C3         -1.9776    -5.0450    91.7722 C.3        1           0.1143
      4 O1         -1.1403    -5.7352    92.7022 O.3        1          -0.3540
      5 C4          0.0014    -6.2629    92.2219 C.2        1           0.6682
      6 O2          0.0588    -6.6385    91.0676 O.2        1          -0.5615
      7 N1          1.0807    -6.3748    93.0213 N.am       1          -0.6066
      8 C5          1.2042    -5.9863    94.4351 C.3        1           0.1001
      9 C6          2.6856    -5.7122    94.6837 C.3        1          -0.1207
     10 C7          3.3196    -5.8474    93.3023 C.3        1          -0.1350
     11 C8          4.7654    -6.3378    93.4018 C.3        1           0.0008
     12 N2          5.5545    -5.3795    94.1872 N.4        1          -0.5127
     13 H1          5.5355    -4.4776    93.7351 H          1           0.4284
     14 H2          5.1619    -5.2997    95.1133 H          1           0.4291
     15 C9          6.9427    -5.8503    94.2829 C.3        1           0.0462
     16 C10         6.9710    -7.1972    94.9583 C.ar       1          -0.1587
     17 C11         7.0870    -7.2769    96.3350 C.ar       1          -0.0905
     18 C12         7.1142    -8.5093    96.9630 C.ar       1          -0.1026
     19 C13         7.0257    -9.6680    96.2193 C.ar       1          -0.0658
     20 C14         6.9081    -9.5949    94.8302 C.ar       1           0.0130
     21 C15         6.8756    -8.3476    94.2033 C.ar       1          -0.0884
     22 C16         6.8134   -10.8316    94.0274 C.2        1          -0.1321
     23 C17         7.3448   -12.0809    94.2907 C.2        1          -0.1215
     24 C18         7.1260   -13.0923    93.3934 C.2        1          -0.0990
     25 C19         6.3810   -12.8235    92.2575 C.2        1          -0.0898
     26 S1          5.9773   -11.0980    92.4729 S.3        1           0.1010
     27 C20         6.0126   -13.7279    91.1595 C.2        1           0.3471
     28 N3          5.3021   -13.3899    90.1066 N.2        1          -0.4552
     29 C21         5.1512   -14.4644    89.2952 C.ar       1           0.0477
     30 C22         4.5001   -14.6600    88.0726 C.ar       1          -0.0573
     31 C23         4.5210   -15.8904    87.4794 C.ar       1          -0.1228
     32 C24         5.1831   -16.9532    88.0769 C.ar       1          -0.0871
     33 C25         5.8317   -16.7842    89.2827 C.ar       1          -0.1166
     34 C26         5.8222   -15.5420    89.9008 C.ar       1           0.0613
     35 N4          6.3627   -15.0513    91.0746 N.pl3      1          -0.5963
     36 C27         2.4102    -6.9214    92.6822 C.3        1           0.1174
     37 H3         -1.8741    -4.4064    94.3210 H          1           0.1026
     38 H4         -3.1000    -2.9938    94.2880 H          1           0.1137
     39 H5         -3.4213    -3.3270    91.9434 H          1           0.1223
     40 H6         -2.6833    -5.7471    91.3282 H          1           0.0811
     41 H7         -1.3626    -4.6034    90.9880 H          1           0.0767
     42 H8          0.6202    -5.0865    94.6277 H          1           0.0815
     43 H9          0.8616    -6.7979    95.0769 H          1           0.0951
     44 H10         2.8287    -4.7047    95.0742 H          1           0.1044
     45 H11         3.1018    -6.4493    95.3704 H          1           0.0921
     46 H12         3.2601    -4.9112    92.7473 H          1           0.1163
     47 H13         4.7859    -7.3119    93.8901 H          1           0.1433
     48 H14         5.1895    -6.4238    92.4013 H          1           0.1388
     49 H15         7.3668    -5.9365    93.2824 H          1           0.1407
     50 H16         7.5282    -5.1392    94.8658 H          1           0.1424
     51 H17         7.1569    -6.3729    96.9217 H          1           0.1362
     52 H18         7.2052    -8.5644    98.0377 H          1           0.1434
     53 H19         7.0478   -10.6295    96.7107 H          1           0.1413
     54 H20         6.7804    -8.2839    93.1295 H          1           0.1314
     55 H21         7.9217   -12.2557    95.1867 H          1           0.1488
     56 H22         7.5268   -14.0799    93.5681 H          1           0.1570
     57 H23         3.9814   -13.8398    87.5988 H          1           0.1350
     58 H24         4.0167   -16.0374    86.5356 H          1           0.1363
     59 H25         5.1904   -17.9198    87.5950 H          1           0.1364
     60 H26         6.3449   -17.6152    89.7435 H          1           0.1268
     61 H27         6.8897   -15.5500    91.7187 H          1           0.4222
     62 H28         2.5680    -7.8922    93.1519 H          1           0.0782
     63 H29         2.5478    -6.9803    91.6025 H          1           0.0808
@<TRIPOS>BOND
     1    1    2 2
     2    1   37 1
     3    1   38 1
     4    2    3 1
     5    2   39 1
     6    3    4 1
     7    3   40 1
     8    3   41 1
     9    4    5 1
    10    5    6 2
    11    5    7 am
    12    7   36 1
    13    7    8 1
    14    8    9 1
    15    8   42 1
    16    8   43 1
    17    9   10 1
    18    9   44 1
    19    9   45 1
    20   10   11 1
    21   10   36 1
    22   10   46 1
    23   11   12 1
    24   11   47 1
    25   11   48 1
    26   12   13 1
    27   12   14 1
    28   12   15 1
    29   15   16 1
    30   15   49 1
    31   15   50 1
    32   16   21 ar
    33   16   17 ar
    34   17   18 ar
    35   17   51 1
    36   18   19 ar
    37   18   52 1
    38   19   20 ar
    39   19   53 1
    40   20   21 ar
    41   20   22 1
    42   21   54 1
    43   22   26 1
    44   22   23 2
    45   23   24 1
    46   23   55 1
    47   24   25 2
    48   24   56 1
    49   25   26 1
    50   25   27 1
    51   27   35 1
    52   27   28 2
    53   28   29 1
    54   29   34 ar
    55   29   30 ar
    56   30   31 ar
    57   30   57 1
    58   31   32 ar
    59   31   58 1
    60   32   33 ar
    61   32   59 1
    62   33   34 ar
    63   33   60 1
    64   34   35 1
    65   35   61 1
    66   36   62 1
    67   36   63 1
##########                 Name:              T325791
##########          Protonation:                   94
##########               SMILES:   c1ccc(cc1)Oc2ccccc2C[NH2+]C[C@@H](c3cc(cs3)Br)O
##########            Long Name:   2S)-2-(4-bromo-2-thienyl)-2-hydroxy-ethyl]-[(2-phenoxyphenyl)methyl]ammonium
##########          FlexRecCode: 1
##########               Number:                  269
##########   Ligand Source File: /raidb/db2/rgc/tcams/tcams-0000630.db2.gz
##########           GlobalRank: 261
##########                 Rank:                    1
##########               Setnum:                   77
##########             Matchnum:                  881
##########                Cloud:                    1
##########        Electrostatic:           -44.713387
##########        Van der Waals:           -24.973949
##########  Ligand Polar Desolv:             7.310873
########## Ligand Apolar Desolv:            -3.122421
##########      Internal Energy:             0.000000
##########      Receptor Energy: 0.0
########## Receptor Desolvation:             0.000000
########## Receptor Hydrophobic:             0.000000
##########         Total Energy: -65.5
##########        Ligand Charge:             1.000000
##########            Arbitrary:    +999.9990
##########     heavy atom count:   24
##########           pose count:    1
##########        Ligand Energy:             0.000000
# num electro vdwattr vdwrepu polsolv apolsol rdesolv rhydroe totalscore fullpol fullapo
#   1   13.68   -0.73    0.11   -3.33    0.39    0.00    0.00      10.11  -14.09    1.63
#   2   -3.77   -0.36    0.03    0.85   -0.03    0.00    0.00      -3.28    4.88   -0.15
#   3    1.03   -0.48    0.05   -0.12   -0.09    0.00    0.00       0.39   -0.53   -0.38
#   4   21.50   -2.46    2.85   -5.33    0.23    0.00    0.00      16.80  -16.57    0.73
#   5  -18.19   -0.04    0.00    3.65    0.12    0.00    0.00     -14.45   16.90    0.57
#   6  -27.07   -0.19    0.06    5.42    0.20    0.00    0.00     -21.59   14.45    0.52
#   7   -1.94   -1.72    0.95    0.92   -0.16    0.00    0.00      -1.95    2.25   -0.39
#   8    4.93   -1.04    0.08   -1.09   -0.12    0.00    0.00       2.76   -3.33   -0.37
#   9    1.03   -0.69    0.02   -0.22   -0.12    0.00    0.00       0.03   -0.82   -0.46
#  10    3.19   -0.96    0.10   -1.00   -0.15    0.00    0.00       1.18   -3.08   -0.47
#  11    1.19   -1.73    0.65   -0.69   -0.22    0.00    0.00      -0.80   -1.49   -0.47
#  12    4.71   -1.59    0.18   -1.48   -0.19    0.00    0.00       1.63   -3.30   -0.43
#  13   -3.86   -1.47    0.18    0.96   -0.13    0.00    0.00      -4.31    2.30   -0.31
#  14    8.20   -2.53    0.80   -2.17    0.21    0.00    0.00       4.51   -4.39    0.43
#  15   -1.84   -2.59    1.28    0.56   -0.09    0.00    0.00      -2.69    1.16   -0.18
#  16    4.75   -3.42    1.53   -0.96   -0.26    0.00    0.00       1.62   -1.70   -0.46
#  17    3.69   -3.30    1.12   -0.85   -0.26    0.00    0.00       0.39   -1.53   -0.47
#  18    2.54   -2.65    1.10   -0.72   -0.22    0.00    0.00       0.05   -1.50   -0.47
#  19    1.95   -1.44    0.28   -0.60   -0.20    0.00    0.00      -0.01   -1.41   -0.47
#  20    2.54   -1.68    0.49   -0.71   -0.19    0.00    0.00       0.45   -1.74   -0.46
#  21    5.13   -0.75    0.10   -0.56   -0.06    0.00    0.00       3.86   -2.72   -0.27
#  22    1.17   -0.59    0.04   -0.55   -0.09    0.00    0.00      -0.03   -2.73   -0.45
#  23    1.19   -0.86    0.12   -0.40   -0.07    0.00    0.00      -0.01   -1.74   -0.29
#  24    0.04   -2.97    1.09   -0.22   -0.28    0.00    0.00      -2.35   -0.87   -1.10
#  25    2.24   -1.02    0.15   -0.63   -0.07    0.00    0.00       0.66   -2.34   -0.26
#  26   -3.31   -2.39    0.98    0.54   -0.22    0.00    0.00      -4.41    1.96   -0.81
#  27  -15.48   -0.04    0.00    2.45    0.28    0.00    0.00     -12.78   10.47    1.18
#  28   -1.54   -0.06    0.00    0.28   -0.01    0.00    0.00      -1.33    5.40   -0.28
#  29   -2.55   -0.14    0.01    0.80   -0.04    0.00    0.00      -1.92    5.27   -0.28
#  30   -2.39   -0.08    0.00    0.54   -0.02    0.00    0.00      -1.96    7.03   -0.28
#  31   -5.83   -0.80    0.55    2.17   -0.13    0.00    0.00      -4.04    4.67   -0.27
#  32   -3.80   -1.01    1.79    2.69   -0.10    0.00    0.00      -0.44    7.35   -0.28
#  33   -2.03   -0.11    0.01    0.65   -0.03    0.00    0.00      -1.53    5.83   -0.28
#  34   -2.89   -0.22    0.02    0.50   -0.07    0.00    0.00      -2.65    2.09   -0.28
#  35   -4.93   -0.86    1.70    0.46   -0.12    0.00    0.00      -3.75    1.04   -0.28
#  36   -3.51   -0.50    0.13    0.40   -0.11    0.00    0.00      -3.59    0.86   -0.23
#  37   -5.98   -1.01    0.52    1.77   -0.17    0.00    0.00      -4.87    2.99   -0.28
#  38   -5.75   -1.32    1.51    1.21   -0.18    0.00    0.00      -4.54    1.86   -0.28
#  39   -3.07   -1.38    2.33    0.59   -0.12    0.00    0.00      -1.66    1.32   -0.28
#  40   -1.93   -0.21    0.01    0.31   -0.06    0.00    0.00      -1.89    1.39   -0.28
#  41   -2.30   -0.26    0.02    0.55   -0.09    0.00    0.00      -2.08    1.78   -0.28
#  42   -0.92   -0.07    0.00    0.26   -0.02    0.00    0.00      -0.75    3.12   -0.28
#  43   -4.49   -0.18    0.01    0.42   -0.06    0.00    0.00      -4.30    2.11   -0.28

@<TRIPOS>MOLECULE
          T325791        94
   43    45     0     0     0



@<TRIPOS>ATOM
      1 O1          6.1542    -7.2375    92.4103 O.3        1          -0.5406
      2 C1          5.0995    -7.2248    91.4462 C.3        1           0.1856
      3 C2          3.9712    -6.3150    91.9362 C.3        1          -0.0444
      4 N1          4.5457    -5.1178    92.5644 N.4        1          -0.5040
      5 H1          5.1210    -5.3915    93.3468 H          1           0.4282
      6 H2          5.1089    -4.6215    91.8901 H          1           0.4327
      7 C3          3.4624    -4.2442    93.0350 C.3        1           0.0559
      8 C4          2.6210    -4.9852    94.0420 C.ar       1          -0.1953
      9 C5          1.5345    -5.7281    93.6221 C.ar       1          -0.0538
     10 C6          0.7622    -6.4081    94.5455 C.ar       1          -0.1456
     11 C7          1.0749    -6.3468    95.8911 C.ar       1          -0.0437
     12 C8          2.1600    -5.6055    96.3162 C.ar       1          -0.1888
     13 C9          2.9403    -4.9266    95.3908 C.ar       1           0.1465
     14 O2          4.0121    -4.2016    95.8058 O.3        1          -0.2670
     15 C10         5.2165    -4.8268    95.8765 C.ar       1           0.0609
     16 C11         6.3537    -4.2023    95.3842 C.ar       1          -0.1221
     17 C12         7.5768    -4.8400    95.4574 C.ar       1          -0.1034
     18 C13         7.6685    -6.0996    96.0204 C.ar       1          -0.1020
     19 C14         6.5369    -6.7240    96.5118 C.ar       1          -0.1025
     20 C15         5.3123    -6.0883    96.4463 C.ar       1          -0.1187
     21 C16         5.6264    -6.7082    90.1322 C.2        1          -0.2266
     22 C17         4.9704    -6.5333    88.9589 C.2        1          -0.0949
     23 C18         5.6643    -6.0389    87.8700 C.2        1          -0.1397
     24 Br1         4.7909    -5.7777    86.2132 Br         1          -0.0127
     25 C19         6.9804    -5.7438    88.0084 C.2        1          -0.1091
     26 S1          7.2747    -6.1603    89.7192 S.3        1           0.1137
     27 H3          6.5421    -6.3681    92.5803 H          1           0.3907
     28 H4          4.7179    -8.2369    91.3119 H          1           0.1439
     29 H5          3.3499    -6.0192    91.0910 H          1           0.1393
     30 H6          3.3628    -6.8510    92.6646 H          1           0.1494
     31 H7          3.8886    -3.3558    93.5012 H          1           0.1391
     32 H8          2.8411    -3.9484    92.1898 H          1           0.1403
     33 H9          1.2880    -5.7774    92.5719 H          1           0.1419
     34 H10        -0.0869    -6.9880    94.2152 H          1           0.1399
     35 H11         0.4697    -6.8787    96.6105 H          1           0.1397
     36 H12         2.4035    -5.5578    97.3673 H          1           0.1402
     37 H13         6.2824    -3.2187    94.9440 H          1           0.1305
     38 H14         8.4621    -4.3546    95.0740 H          1           0.1369
     39 H15         8.6258    -6.5965    96.0763 H          1           0.1358
     40 H16         6.6114    -7.7079    96.9510 H          1           0.1372
     41 H17         4.4295    -6.5745    96.8345 H          1           0.1327
     42 H18         3.9213    -6.7767    88.8758 H          1           0.1483
     43 H19         7.6709    -5.3540    87.2748 H          1           0.2055
@<TRIPOS>BOND
     1    1    2 1
     2    1   27 1
     3    2    3 1
     4    2   21 1
     5    2   28 1
     6    3    4 1
     7    3   29 1
     8    3   30 1
     9    4    5 1
    10    4    6 1
    11    4    7 1
    12    7    8 1
    13    7   31 1
    14    7   32 1
    15    8   13 ar
    16    8    9 ar
    17    9   10 ar
    18    9   33 1
    19   10   11 ar
    20   10   34 1
    21   11   12 ar
    22   11   35 1
    23   12   13 ar
    24   12   36 1
    25   13   14 1
    26   14   15 1
    27   15   20 ar
    28   15   16 ar
    29   16   17 ar
    30   16   37 1
    31   17   18 ar
    32   17   38 1
    33   18   19 ar
    34   18   39 1
    35   19   20 ar
    36   19   40 1
    37   20   41 1
    38   21   26 1
    39   21   22 2
    40   22   23 1
    41   22   42 1
    42   23   24 1
    43   23   25 2
    44   25   26 1
    45   25   43 1
##########                 Name:              T532228
##########          Protonation:                   36
##########               SMILES:   Cc1cc(ccc1N2CC[NH+](CC2)C(C)C)NC(=O)CC[NH+]3CCN(CC3)c4cccc(c4Cl)Cl
##########            Long Name:   ium-1-yl]-N-[4-(4-isopropylpiperazin-4-ium-1-yl)-3-methyl-phenyl]propanamide
##########          FlexRecCode: 1
##########               Number:                  135
##########   Ligand Source File: /raidb/db2/rgc/tcams/tcams-0000923.db2.gz
##########           GlobalRank: 261
##########                 Rank:                    1
##########               Setnum:                  370
##########             Matchnum:                 3547
##########                Cloud:                    1
##########        Electrostatic:           -40.378479
##########        Van der Waals:           -34.028214
##########  Ligand Polar Desolv:            13.345427
########## Ligand Apolar Desolv:            -4.436525
##########      Internal Energy:             0.000000
##########      Receptor Energy: 0.0
########## Receptor Desolvation:             0.000000
########## Receptor Hydrophobic:             0.000000
##########         Total Energy: -65.5
##########        Ligand Charge:             2.000000
##########            Arbitrary:    +999.9990
##########     heavy atom count:   35
##########           pose count:    1
##########        Ligand Energy:             0.000000
# num electro vdwattr vdwrepu polsolv apolsol rdesolv rhydroe totalscore fullpol fullapo
#   1    0.18   -0.26    0.01   -0.91   -0.03    0.00    0.00      -1.01   -5.97   -0.18
#   2   -0.03   -0.17    0.00    0.22   -0.02    0.00    0.00      -0.01    2.22   -0.24
#   3    0.35   -0.45    0.06   -1.26   -0.04    0.00    0.00      -1.35   -5.96   -0.18
#   4    0.48   -0.14    0.00   -0.87    0.01    0.00    0.00      -0.51  -12.58    0.15
#   5   -0.44    0.00    0.00    0.46    0.02    0.00    0.00       0.04   16.38    0.53
#   6    0.05   -0.24    0.01   -0.04   -0.05    0.00    0.00      -0.28   -0.30   -0.37
#   7   -0.18   -0.25    0.01    0.53   -0.07    0.00    0.00       0.05    3.56   -0.49
#   8    1.03   -0.19    0.00   -1.45    0.08    0.00    0.00      -0.51  -18.93    1.09
#   9   -0.14   -0.06    0.00    0.15   -0.02    0.00    0.00      -0.06    3.45   -0.47
#  10    0.04   -0.07    0.00   -0.01   -0.02    0.00    0.00      -0.06   -0.27   -0.37
#  11   -0.35   -0.30    0.01    0.47   -0.07    0.00    0.00      -0.24    3.66   -0.55
#  12    0.41   -0.52    0.03   -0.51   -0.09    0.00    0.00      -0.68   -2.68   -0.46
#  13    2.08   -1.22    0.22   -0.86   -0.11    0.00    0.00       0.11   -3.10   -0.40
#  14   -2.89   -1.33    0.32    0.77   -0.20    0.00    0.00      -3.33    2.68   -0.68
#  15   23.79   -3.03    1.82   -6.02    0.59    0.00    0.00      17.15  -16.87    1.65
#  16  -14.75   -1.41    0.30    4.21   -0.20    0.00    0.00     -11.84   13.28   -0.63
#  17    9.43   -0.54    0.02   -2.92    0.07    0.00    0.00       6.06  -12.64    0.32
#  18    5.88   -1.37    0.31   -2.37   -0.10    0.00    0.00       2.34   -5.36   -0.23
#  19   -0.15   -0.95    0.10    0.35   -0.12    0.00    0.00      -0.77    0.86   -0.30
#  20    8.91   -0.75    0.04   -4.11    0.09    0.00    0.00       4.18  -12.74    0.27
#  21   -9.55   -0.01    0.00    2.13    0.06    0.00    0.00      -7.37   19.74    0.53
#  22    0.46   -0.79    0.07   -0.25   -0.14    0.00    0.00      -0.65   -0.68   -0.38
#  23   -0.70   -1.20    0.56    1.21   -0.17    0.00    0.00      -0.30    3.53   -0.49
#  24    9.16   -1.04    0.06   -6.96    0.47    0.00    0.00       1.68  -19.00    1.28
#  25   -2.84   -0.87    0.11    1.34   -0.19    0.00    0.00      -2.44    3.45   -0.49
#  26    0.72   -1.03    0.18   -0.07   -0.18    0.00    0.00      -0.37   -0.15   -0.40
#  27   -2.07   -1.36    0.13    1.96   -0.23    0.00    0.00      -1.56    4.68   -0.55
#  28    1.66   -1.92    0.27   -1.05   -0.25    0.00    0.00      -1.30   -1.96   -0.46
#  29    1.80   -2.62    0.60   -1.08   -0.28    0.00    0.00      -1.57   -1.83   -0.47
#  30    1.38   -2.33    0.77   -1.11   -0.25    0.00    0.00      -1.55   -2.05   -0.46
#  31    0.27   -1.75    0.53   -0.49   -0.14    0.00    0.00      -1.58   -1.06   -0.30
#  32    0.24   -3.21    0.52   -0.73   -0.54    0.00    0.00      -3.74   -1.28   -0.95
#  33    0.32   -1.45    0.21   -0.39   -0.11    0.00    0.00      -1.43   -1.05   -0.30
#  34    0.13   -3.31    1.15   -0.27   -0.32    0.00    0.00      -2.62   -0.75   -0.91
#  35    1.02   -0.71    0.13   -0.73   -0.09    0.00    0.00      -0.38   -3.60   -0.46
#  36    0.16   -0.35    0.02   -0.25   -0.06    0.00    0.00      -0.48   -1.82   -0.41
#  37    0.16   -0.16    0.00   -0.26   -0.02    0.00    0.00      -0.28   -2.79   -0.20
#  38   -0.06   -0.04    0.00    0.11   -0.01    0.00    0.00       0.00    3.12   -0.22
#  39   -0.09   -0.11    0.00    0.26   -0.03    0.00    0.00       0.03    2.43   -0.28
#  40   -0.09   -0.12    0.01    0.18   -0.03    0.00    0.00      -0.06    1.53   -0.28
#  41   -0.13   -0.04    0.00    0.18   -0.01    0.00    0.00       0.00    5.38   -0.28
#  42   -0.18   -0.14    0.03    0.27   -0.03    0.00    0.00      -0.05    2.45   -0.28
#  43   -0.15   -0.20    0.02    0.67   -0.05    0.00    0.00       0.30    3.20   -0.22
#  44   -0.23   -0.15    0.01    0.21   -0.04    0.00    0.00      -0.20    1.53   -0.28
#  45   -0.27   -0.07    0.00    0.34   -0.02    0.00    0.00      -0.02    4.95   -0.28
#  46   -0.22   -0.14    0.02    0.71   -0.02    0.00    0.00       0.34    5.97   -0.21
#  47   -0.17   -0.15    0.01    0.36   -0.04    0.00    0.00       0.02    2.38   -0.27
#  48   -0.09   -0.06    0.00    0.17   -0.02    0.00    0.00       0.00    2.63   -0.28
#  49   -0.10   -0.01    0.00    0.05   -0.01    0.00    0.00      -0.08    2.08   -0.27
#  50   -0.08   -0.01    0.00    0.06   -0.01    0.00    0.00      -0.04    2.62   -0.28
#  51   -0.14   -0.01    0.00    0.12    0.00    0.00    0.00      -0.04    5.85   -0.21
#  52   -0.22   -0.03    0.00    0.15   -0.01    0.00    0.00      -0.10    4.87   -0.22
#  53   -0.51   -0.08    0.00    0.17   -0.02    0.00    0.00      -0.43    2.14   -0.28
#  54   -4.65   -0.47    0.20    0.45   -0.06    0.00    0.00      -4.54    1.56   -0.22
#  55  -24.29   -0.18    0.06    5.69    0.26    0.00    0.00     -18.46   12.91    0.59
#  56   -5.54   -0.61    0.22    3.10   -0.10    0.00    0.00      -2.93    6.80   -0.22
#  57   -3.87   -0.73    0.42    3.25   -0.12    0.00    0.00      -1.05    7.65   -0.28
#  58   -4.14   -0.65    0.24    1.92   -0.10    0.00    0.00      -2.73    5.14   -0.27
#  59   -3.39   -0.20    0.01    0.73   -0.06    0.00    0.00      -2.91    3.40   -0.28
#  60   -2.20   -0.33    0.04    1.07   -0.10    0.00    0.00      -1.52    2.91   -0.26
#  61   -1.56   -0.24    0.03    1.93   -0.05    0.00    0.00       0.11    8.28   -0.21
#  62    0.11   -0.80    0.61    0.75   -0.10    0.00    0.00       0.57    2.01   -0.27
#  63   -0.03   -0.50    0.60    1.05   -0.06    0.00    0.00       1.06    4.92   -0.28
#  64   -2.97   -0.47    0.15    0.65   -0.11    0.00    0.00      -2.74    1.67   -0.27
#  65   -2.19   -0.24    0.04    0.98   -0.06    0.00    0.00      -1.47    4.57   -0.28
#  66   -5.74   -0.43    0.14    2.70   -0.11    0.00    0.00      -3.44    6.85   -0.28
#  67   -3.30   -0.79    1.00    0.93   -0.09    0.00    0.00      -2.25    2.71   -0.26
#  68   -2.31   -0.61    0.49    2.08   -0.13    0.00    0.00      -0.49    4.35   -0.28
#  69   -3.86   -0.93    0.45    1.75   -0.17    0.00    0.00      -2.76    2.88   -0.28
#  70   -2.39   -0.64    0.43    0.77   -0.14    0.00    0.00      -1.97    1.53   -0.28
#  71   -1.08   -0.12    0.01    0.42   -0.03    0.00    0.00      -0.81    3.47   -0.28
#  72   -0.12   -0.06    0.00    0.13   -0.02    0.00    0.00      -0.07    2.26   -0.28
#  73   -0.09   -0.05    0.00    0.06   -0.01    0.00    0.00      -0.10    1.19   -0.28
#  74   -0.08   -0.03    0.00    0.11   -0.01    0.00    0.00       0.00    3.09   -0.17

@<TRIPOS>MOLECULE
          T532228        36
   74    77     0     0     0



@<TRIPOS>ATOM
      1 C1          2.6576    -9.8763    82.4965 C.3        1          -0.1845
      2 C2          3.6378    -9.8590    83.6712 C.3        1           0.0227
      3 C3          4.7919    -8.9045    83.3584 C.3        1          -0.1844
      4 N1          2.9421    -9.4058    84.8830 N.4        1          -0.3784
      5 H1          2.0182    -9.8105    84.9102 H          1           0.4205
      6 C4          2.8330    -7.9418    84.8640 C.3        1          -0.0307
      7 C5          2.0083    -7.4763    86.0687 C.3        1           0.1213
      8 N2          2.6172    -8.0237    87.2904 N.pl3      1          -0.6749
      9 C6          2.9140    -9.4643    87.3319 C.3        1           0.1200
     10 C7          3.6969    -9.8340    86.0675 C.3        1          -0.0320
     11 C8          2.9071    -7.1979    88.3817 C.ar       1           0.1403
     12 C9          4.1465    -6.5765    88.4728 C.ar       1          -0.0911
     13 C10         4.4321    -5.7614    89.5496 C.ar       1          -0.1148
     14 C11         3.4812    -5.5636    90.5423 C.ar       1           0.1500
     15 N3          3.7717    -4.7362    91.6358 N.am       1          -0.6670
     16 C12         3.2009    -4.9762    92.8328 C.2        1           0.5229
     17 O1          2.4357    -5.9082    92.9639 O.2        1          -0.5085
     18 C13         3.5132    -4.0867    94.0084 C.3        1          -0.1731
     19 C14         3.4106    -4.8969    95.3023 C.3        1           0.0056
     20 N4          4.3698    -6.0087    95.2610 N.4        1          -0.3793
     21 H2          4.3838    -6.4051    94.3333 H          1           0.4229
     22 C15         3.9640    -7.0389    96.2255 C.3        1          -0.0334
     23 C16         4.8970    -8.2482    96.1024 C.3        1           0.1221
     24 N5          6.2844    -7.7843    96.2573 N.pl3      1          -0.6723
     25 C17         6.7289    -6.6432    95.4422 C.3        1           0.1210
     26 C18         5.7091    -5.5102    95.5984 C.3        1          -0.0250
     27 C19         7.1553    -8.4097    97.1536 C.ar       1           0.1646
     28 C20         7.7227    -7.6844    98.1934 C.ar       1          -0.0998
     29 C21         8.5833    -8.3048    99.0780 C.ar       1          -0.0887
     30 C22         8.8809    -9.6471    98.9301 C.ar       1          -0.0878
     31 C23         8.3184   -10.3737    97.8955 C.ar       1          -0.0270
     32 Cl1         8.6950   -12.0586    97.7138 Cl         1          -0.0312
     33 C24         7.4510    -9.7599    97.0099 C.ar       1          -0.0379
     34 Cl2         6.7390   -10.6729    95.7163 Cl         1          -0.0521
     35 C25         2.2429    -6.1846    90.4515 C.ar       1          -0.1337
     36 C26         1.9549    -6.9958    89.3718 C.ar       1          -0.0651
     37 C27         0.6087    -7.6654    89.2703 C.3        1          -0.1128
     38 H3          1.8353   -10.5563    82.7194 H          1           0.0812
     39 H4          2.2651    -8.8720    82.3363 H          1           0.0821
     40 H5          3.1739   -10.2124    81.5974 H          1           0.1073
     41 H6          4.0303   -10.8633    83.8315 H          1           0.1346
     42 H7          5.4902    -8.8922    84.1953 H          1           0.0821
     43 H8          5.3082    -9.2409    82.4594 H          1           0.0814
     44 H9          4.3995    -7.9003    83.1979 H          1           0.1072
     45 H10         3.8293    -7.5024    84.9139 H          1           0.1292
     46 H11         2.3420    -7.6259    83.9436 H          1           0.1403
     47 H12         2.0100    -6.3874    86.1149 H          1           0.1149
     48 H13         0.9852    -7.8404    85.9748 H          1           0.0800
     49 H14         3.5144    -9.6896    88.2133 H          1           0.1147
     50 H15         1.9823   -10.0290    87.3655 H          1           0.0806
     51 H16         3.8432   -10.9137    86.0347 H          1           0.1403
     52 H17         4.6666    -9.3361    86.0802 H          1           0.1300
     53 H18         4.8861    -6.7309    87.7012 H          1           0.1311
     54 H19         5.3952    -5.2778    89.6204 H          1           0.1375
     55 H20         4.3836    -3.9909    91.5309 H          1           0.4175
     56 H21         4.5238    -3.6912    93.9064 H          1           0.1213
     57 H22         2.8015    -3.2616    94.0390 H          1           0.1247
     58 H23         3.6366    -4.2535    96.1528 H          1           0.1425
     59 H24         2.4001    -5.2924    95.4044 H          1           0.1382
     60 H25         4.0242    -6.6348    97.2359 H          1           0.1315
     61 H26         2.9395    -7.3478    96.0177 H          1           0.1375
     62 H27         4.6634    -8.9719    96.8832 H          1           0.1179
     63 H28         4.7721    -8.7090    95.1225 H          1           0.0858
     64 H29         7.7066    -6.3060    95.7866 H          1           0.1191
     65 H30         6.7890    -6.9421    94.3958 H          1           0.0866
     66 H31         5.9716    -4.6916    94.9284 H          1           0.1417
     67 H32         5.7152    -5.1534    96.6283 H          1           0.1309
     68 H33         7.4916    -6.6360    98.3099 H          1           0.1423
     69 H34         9.0247    -7.7405    99.8862 H          1           0.1486
     70 H35         9.5542   -10.1292    99.6234 H          1           0.1511
     71 H36         1.5036    -6.0302    91.2235 H          1           0.1323
     72 H37         0.0001    -7.3901    90.1318 H          1           0.0734
     73 H38         0.1107    -7.3433    88.3557 H          1           0.0726
     74 H39         0.7415    -8.7471    89.2502 H          1           0.0613
@<TRIPOS>BOND
     1    1    2 1
     2    1   38 1
     3    1   39 1
     4    1   40 1
     5    2    3 1
     6    2    4 1
     7    2   41 1
     8    3   42 1
     9    3   43 1
    10    3   44 1
    11    4    5 1
    12    4   10 1
    13    4    6 1
    14    6    7 1
    15    6   45 1
    16    6   46 1
    17    7    8 1
    18    7   47 1
    19    7   48 1
    20    8    9 1
    21    8   11 1
    22    9   10 1
    23    9   49 1
    24    9   50 1
    25   10   51 1
    26   10   52 1
    27   11   36 ar
    28   11   12 ar
    29   12   13 ar
    30   12   53 1
    31   13   14 ar
    32   13   54 1
    33   14   15 1
    34   14   35 ar
    35   15   16 am
    36   15   55 1
    37   16   17 2
    38   16   18 1
    39   18   19 1
    40   18   56 1
    41   18   57 1
    42   19   20 1
    43   19   58 1
    44   19   59 1
    45   20   21 1
    46   20   26 1
    47   20   22 1
    48   22   23 1
    49   22   60 1
    50   22   61 1
    51   23   24 1
    52   23   62 1
    53   23   63 1
    54   24   25 1
    55   24   27 1
    56   25   26 1
    57   25   64 1
    58   25   65 1
    59   26   66 1
    60   26   67 1
    61   27   33 ar
    62   27   28 ar
    63   28   29 ar
    64   28   68 1
    65   29   30 ar
    66   29   69 1
    67   30   31 ar
    68   30   70 1
    69   31   32 1
    70   31   33 ar
    71   33   34 1
    72   35   36 ar
    73   35   71 1
    74   36   37 1
    75   37   72 1
    76   37   73 1
    77   37   74 1
##########                 Name:              T527643
##########          Protonation:                   15
##########               SMILES:   c1ccc(cc1)CON2[C@@H](NC(=[NH2+])NC2=[NH2+])c3ccccc3
##########            Long Name:   6R)-4-azaniumylidene-1-benzyloxy-6-phenyl-1,3,5-triazinan-2-ylidene]ammonium
##########          FlexRecCode: 1
##########               Number:                  145
##########   Ligand Source File: /raidb/db2/rgc/tcams/tcams-0000303.db2.gz
##########           GlobalRank: 262
##########                 Rank:                    1
##########               Setnum:                   36
##########             Matchnum:                 1133
##########                Cloud:                    1
##########        Electrostatic:           -70.990112
##########        Van der Waals:           -18.703459
##########  Ligand Polar Desolv:            27.656479
########## Ligand Apolar Desolv:            -3.425416
##########      Internal Energy:             0.000000
##########      Receptor Energy: 0.0
########## Receptor Desolvation:             0.000000
########## Receptor Hydrophobic:             0.000000
##########         Total Energy: -65.46
##########        Ligand Charge:             2.000000
##########            Arbitrary:    +999.9990
##########     heavy atom count:   22
##########           pose count:    1
##########        Ligand Energy:             0.000000
# num electro vdwattr vdwrepu polsolv apolsol rdesolv rhydroe totalscore fullpol fullapo
#   1   27.08   -3.29    0.84  -17.59    0.48    0.00    0.00       7.52  -32.31    0.89
#   2  -22.50   -0.07    0.00   14.32    0.35    0.00    0.00      -7.91   24.80    0.60
#   3  -16.78   -0.08    0.00   13.37    0.33    0.00    0.00      -3.16   24.33    0.60
#   4  -28.77   -1.80    0.46   16.91   -2.01    0.00    0.00     -15.20   38.68   -4.59
#   5   18.21   -1.28    0.13  -12.88    0.52    0.00    0.00       4.69  -34.22    1.37
#   6   -6.80   -0.57    0.04    6.04   -0.30    0.00    0.00      -1.59   20.10   -1.00
#   7    6.90   -0.72    0.07   -4.98    0.14    0.00    0.00       1.40  -22.61    0.63
#   8    0.14   -1.53    1.04   -0.90    0.11    0.00    0.00      -1.13   -3.79    0.48
#   9   -0.53   -0.61    0.09    0.71   -0.03    0.00    0.00      -0.38    2.89   -0.13
#  10    1.25   -1.18    0.19   -0.76   -0.12    0.00    0.00      -0.61   -2.50   -0.39
#  11    1.45   -2.06    1.01   -0.89   -0.16    0.00    0.00      -0.64   -2.53   -0.45
#  12    1.95   -2.68    1.58   -1.38   -0.20    0.00    0.00      -0.73   -3.30   -0.47
#  13    1.18   -1.68    0.28   -1.44   -0.23    0.00    0.00      -1.89   -2.98   -0.47
#  14    1.05   -1.45    0.22   -1.35   -0.19    0.00    0.00      -1.71   -3.39   -0.47
#  15    0.55   -1.28    0.14   -0.81   -0.15    0.00    0.00      -1.55   -2.36   -0.45
#  16  -20.37   -0.85    0.15    8.42   -1.01    0.00    0.00     -13.66   36.77   -4.41
#  17   14.37   -0.62    0.06   -5.78    0.17    0.00    0.00       8.19  -29.75    0.89
#  18   -5.96    0.00    0.00    1.23    0.03    0.00    0.00      -4.70   21.39    0.60
#  19  -13.10   -0.01    0.00    3.83    0.10    0.00    0.00      -9.18   24.10    0.60
#  20   30.61   -3.64    8.19  -11.30    0.40    0.00    0.00      24.26  -32.24    1.14
#  21    3.19   -0.81    0.04   -1.39   -0.11    0.00    0.00       0.92   -4.63   -0.36
#  22    1.28   -1.34    0.21   -1.11   -0.18    0.00    0.00      -1.13   -2.78   -0.44
#  23    2.55   -1.90    0.83   -1.93   -0.20    0.00    0.00      -0.66   -4.49   -0.47
#  24    2.16   -1.72    0.70   -1.51   -0.17    0.00    0.00      -0.53   -4.23   -0.47
#  25    2.53   -1.07    0.08   -1.60   -0.17    0.00    0.00      -0.21   -4.53   -0.47
#  26    2.25   -0.90    0.04   -0.76   -0.14    0.00    0.00       0.49   -2.33   -0.44
#  27  -11.34   -0.04    0.00    7.29    0.18    0.00    0.00      -3.90   24.29    0.59
#  28   -1.67   -0.26    0.04    2.06   -0.06    0.00    0.00       0.11    9.05   -0.28
#  29   -0.36   -0.19    0.03    0.84   -0.04    0.00    0.00       0.28    5.60   -0.28
#  30   -1.40   -0.14    0.01    0.67   -0.04    0.00    0.00      -0.90    4.88   -0.28
#  31   -3.09   -0.41    0.16    1.29   -0.08    0.00    0.00      -2.13    4.56   -0.28
#  32   -2.76   -0.80    0.67    0.66   -0.12    0.00    0.00      -2.35    1.58   -0.28
#  33   -2.39   -0.34    0.03    0.42   -0.12    0.00    0.00      -2.40    0.97   -0.28
#  34   -1.02   -0.36    0.11    0.59   -0.08    0.00    0.00      -0.76    2.10   -0.28
#  35   -0.21   -0.33    0.06    1.60   -0.08    0.00    0.00       1.03    5.86   -0.28
#  36  -34.88   -0.60    1.38    9.20    0.20    0.00    0.00     -24.70   27.16    0.59
#  37   -0.60   -0.59    0.51    2.34   -0.10    0.00    0.00       1.55    5.79   -0.26
#  38   -3.51   -0.66    0.43    0.93   -0.12    0.00    0.00      -2.93    2.09   -0.28
#  39   -4.92   -0.55    0.33    0.39   -0.10    0.00    0.00      -4.85    1.12   -0.28
#  40   -3.25   -0.25    0.02    0.83   -0.08    0.00    0.00      -2.73    2.98   -0.28
#  41   -3.50   -0.23    0.01    2.08   -0.06    0.00    0.00      -1.69    8.78   -0.26

@<TRIPOS>MOLECULE
          T527643        15
   41    43     0     0     0



@<TRIPOS>ATOM
      1 N1          4.7141    -3.4786    94.7750 N.pl3      1          -0.6667
      2 H1          4.9073    -2.8944    94.0251 H          1           0.4604
      3 H2          4.3689    -3.1077    95.6022 H          1           0.4678
      4 C1          4.9129    -4.7614    94.6693 C.cat      1           0.7777
      5 N2          4.6417    -5.6338    95.7142 N.pl3      1          -0.7157
      6 C2          3.9428    -6.8880    95.3781 C.3        1           0.4401
      7 N3          4.5783    -7.4430    94.1687 N.pl3      1          -0.5006
      8 O1          4.8972    -8.8189    94.0671 O.3        1          -0.0812
      9 C3          6.2881    -9.0802    93.8692 C.3        1           0.0652
     10 C4          7.0092    -8.9890    95.1892 C.ar       1          -0.1246
     11 C5          7.5278    -7.7791    95.6115 C.ar       1          -0.0853
     12 C6          8.1892    -7.6955    96.8224 C.ar       1          -0.1146
     13 C7          8.3318    -8.8215    97.6113 C.ar       1          -0.0834
     14 C8          7.8125   -10.0312    97.1895 C.ar       1          -0.1170
     15 C9          7.1473   -10.1139    95.9806 C.ar       1          -0.0933
     16 C10         4.8500    -6.5584    93.1344 C.cat      1           0.7731
     17 N4          4.5962    -6.8543    91.8916 N.pl3      1          -0.6509
     18 H3          4.2063    -7.7137    91.6677 H          1           0.4709
     19 H4          4.7971    -6.2152    91.1901 H          1           0.4593
     20 N5          5.4045    -5.3361    93.4986 N.pl3      1          -0.6772
     21 C11         2.4876    -6.6054    95.1070 C.ar       1          -0.1836
     22 C12         1.5336    -7.5670    95.3832 C.ar       1          -0.0897
     23 C13         0.1988    -7.3079    95.1345 C.ar       1          -0.1049
     24 C14        -0.1823    -6.0874    94.6098 C.ar       1          -0.0750
     25 C15         0.7716    -5.1250    94.3348 C.ar       1          -0.1056
     26 C16         2.1060    -5.3826    94.5874 C.ar       1          -0.0968
     27 H5          4.9010    -5.4275    96.6259 H          1           0.4669
     28 H6          4.0356    -7.5952    96.2023 H          1           0.1843
     29 H7          6.4146   -10.0802    93.4544 H          1           0.0822
     30 H8          6.7010    -8.3453    93.1780 H          1           0.0921
     31 H9          7.4164    -6.8993    94.9950 H          1           0.1290
     32 H10         8.5949    -6.7503    97.1519 H          1           0.1371
     33 H11         8.8492    -8.7563    98.5570 H          1           0.1370
     34 H12         7.9242   -10.9111    97.8058 H          1           0.1352
     35 H13         6.7383   -11.0583    95.6528 H          1           0.1213
     36 H14         6.0958    -4.9102    92.9680 H          1           0.4788
     37 H15         1.8313    -8.5210    95.7928 H          1           0.1326
     38 H16        -0.5464    -8.0596    95.3496 H          1           0.1424
     39 H17        -1.2251    -5.8845    94.4150 H          1           0.1429
     40 H18         0.4739    -4.1712    93.9249 H          1           0.1425
     41 H19         2.8508    -4.6297    94.3759 H          1           0.1272
@<TRIPOS>BOND
     1    1    2 1
     2    1    3 1
     3    1    4 2
     4    4   20 1
     5    4    5 1
     6    5    6 1
     7    5   27 1
     8    6    7 1
     9    6   21 1
    10    6   28 1
    11    7    8 1
    12    7   16 1
    13    8    9 1
    14    9   10 1
    15    9   29 1
    16    9   30 1
    17   10   15 ar
    18   10   11 ar
    19   11   12 ar
    20   11   31 1
    21   12   13 ar
    22   12   32 1
    23   13   14 ar
    24   13   33 1
    25   14   15 ar
    26   14   34 1
    27   15   35 1
    28   16   17 2
    29   16   20 1
    30   17   18 1
    31   17   19 1
    32   20   36 1
    33   21   26 ar
    34   21   22 ar
    35   22   23 ar
    36   22   37 1
    37   23   24 ar
    38   23   38 1
    39   24   25 ar
    40   24   39 1
    41   25   26 ar
    42   25   40 1
    43   26   41 1
##########                 Name:              T534607
##########          Protonation:                   45
##########               SMILES:   c1cc(cc(c1)c2cccc(c2)c3[nH]c4ccc(cc4n3)C(F)(F)F)C[NH+]5CCN(CC5)c6cc[nH+]cc6
##########            Long Name:   erazin-1-ium-1-yl)methyl]phenyl]phenyl]-5-(trifluoromethyl)-1H-benzimidazole
##########          FlexRecCode: 1
##########               Number:                  126
##########   Ligand Source File: /raidb/db2/rgc/tcams/tcams-0001270.db2.gz
##########           GlobalRank: 264
##########                 Rank:                    1
##########               Setnum:                   49
##########             Matchnum:                 1606
##########                Cloud:                    1
##########        Electrostatic:           -56.729092
##########        Van der Waals:           -24.172220
##########  Ligand Polar Desolv:            20.346478
########## Ligand Apolar Desolv:            -4.898689
##########      Internal Energy:             0.000000
##########      Receptor Energy: 0.0
########## Receptor Desolvation:             0.000000
########## Receptor Hydrophobic:             0.000000
##########         Total Energy: -65.45
##########        Ligand Charge:             2.000000
##########            Arbitrary:    +999.9990
##########     heavy atom count:   38
##########           pose count:    1
##########        Ligand Energy:             0.000000
# num electro vdwattr vdwrepu polsolv apolsol rdesolv rhydroe totalscore fullpol fullapo
#   1    1.34   -0.79    0.05   -0.44   -0.26    0.00    0.00      -0.10   -0.80   -0.48
#   2   -4.35   -1.06    0.14    1.40   -0.04    0.00    0.00      -3.91    2.57   -0.07
#   3    1.32   -1.62    0.70   -0.48   -0.27    0.00    0.00      -0.35   -0.82   -0.45
#   4    1.85   -1.10    0.28   -0.46   -0.23    0.00    0.00       0.34   -0.92   -0.45
#   5    1.75   -1.73    0.51   -0.52   -0.17    0.00    0.00      -0.17   -1.20   -0.38
#   6    0.82   -1.92    0.39   -0.40   -0.24    0.00    0.00      -1.35   -0.75   -0.44
#   7    1.72   -1.89    0.24   -0.45   -0.25    0.00    0.00      -0.64   -0.84   -0.47
#   8   -1.09   -1.48    0.16    0.20   -0.35    0.00    0.00      -2.56    0.45   -0.78
#   9    9.55   -1.54    0.28   -2.70    0.49    0.00    0.00       6.06   -6.31    1.14
#  10   -3.89   -1.16    0.13    1.11   -0.74    0.00    0.00      -4.55    3.19   -2.13
#  11    1.57   -2.18    1.60   -1.06    0.67    0.00    0.00       0.60   -3.22    2.04
#  12   -0.30   -1.64    0.30   -0.04   -0.29    0.00    0.00      -1.98   -0.12   -0.79
#  13    0.02   -1.78    0.39   -0.12   -0.17    0.00    0.00      -1.65   -0.30   -0.44
#  14    0.27   -0.88    0.05   -0.39   -0.13    0.00    0.00      -1.08   -1.25   -0.41
#  15    0.71   -0.69    0.06   -0.33   -0.09    0.00    0.00      -0.34   -1.61   -0.42
#  16    1.11   -0.55    0.01   -0.20   -0.09    0.00    0.00       0.29   -0.96   -0.41
#  17    2.04   -0.85    0.04   -0.46   -0.13    0.00    0.00       0.63   -1.49   -0.44
#  18    2.79   -1.48    0.21   -1.05   -0.19    0.00    0.00       0.28   -2.54   -0.47
#  19    1.98   -1.35    0.13   -0.85   -0.19    0.00    0.00      -0.28   -2.02   -0.45
#  20    0.21   -0.43    0.01   -0.37   -0.07    0.00    0.00      -0.65   -2.28   -0.41
#  21    0.48   -0.50    0.02   -0.59   -0.08    0.00    0.00      -0.67   -3.22   -0.44
#  22    0.19   -0.40    0.01   -0.63   -0.07    0.00    0.00      -0.90   -3.94   -0.47
#  23    0.15   -0.25    0.00   -0.21   -0.04    0.00    0.00      -0.34   -2.15   -0.36
#  24    0.67   -0.24    0.00   -0.35   -0.03    0.00    0.00       0.05   -3.71   -0.33
#  25   -0.16   -0.11    0.00    0.20   -0.02    0.00    0.00      -0.09    3.00   -0.36
#  26    1.48   -0.26    0.01   -2.27    0.04    0.00    0.00      -1.01  -17.11    0.27
#  27   -0.98   -0.01    0.00    1.64    0.04    0.00    0.00       0.70   21.53    0.53
#  28    0.10   -0.15    0.00   -0.10   -0.04    0.00    0.00      -0.18   -0.99   -0.37
#  29   -0.28   -0.38    0.02    0.65   -0.09    0.00    0.00      -0.08    3.32   -0.48
#  30    4.53   -1.22    0.30   -6.96    0.46    0.00    0.00      -2.89  -25.32    1.69
#  31   -1.22   -1.98    2.24    1.00   -0.16    0.00    0.00      -0.12    3.00   -0.47
#  32    0.30   -0.49    0.04   -0.07   -0.09    0.00    0.00      -0.31   -0.30   -0.40
#  33   -6.40   -1.44    0.34    4.30   -0.25    0.00    0.00      -3.46   12.08   -0.70
#  34    4.31   -2.09    1.14   -3.45   -0.17    0.00    0.00      -0.26   -8.99   -0.44
#  35   -6.52   -3.42    3.08    2.71   -0.44    0.00    0.00      -4.59    5.93   -0.97
#  36   18.94   -3.78    2.77   -9.03    0.46    0.00    0.00       9.36  -18.85    0.97
#  37  -22.85   -0.19    0.04    8.86    0.29    0.00    0.00     -13.85   18.12    0.59
#  38   -6.51   -2.97    1.45    2.73   -0.46    0.00    0.00      -5.76    5.81   -0.97
#  39    7.39   -2.53    1.16   -3.66   -0.18    0.00    0.00       2.18   -9.10   -0.44
#  40    0.80   -0.34    0.01   -0.29   -0.06    0.00    0.00       0.13   -2.11   -0.42
#  41   -2.83   -0.42    0.06    0.85   -0.12    0.00    0.00      -2.46    1.84   -0.27
#  42   -2.58   -0.53    0.12    1.54   -0.15    0.00    0.00      -1.60    2.83   -0.28
#  43   -8.14   -0.05    0.00    2.50    0.19    0.00    0.00      -5.50    7.03    0.53
#  44   -0.26   -0.36    0.06    0.22   -0.08    0.00    0.00      -0.43    0.71   -0.27
#  45   -1.05   -0.15    0.02    0.10   -0.02    0.00    0.00      -1.11    0.79   -0.20
#  46   -2.75   -0.17    0.01    1.33   -0.04    0.00    0.00      -1.63    6.99   -0.21
#  47   -3.64   -0.66    0.50    1.86   -0.12    0.00    0.00      -2.06    4.37   -0.28
#  48   -3.18   -0.53    0.21    0.99   -0.09    0.00    0.00      -2.61    2.55   -0.24
#  49   -1.81   -0.13    0.01    0.05   -0.03    0.00    0.00      -1.91    0.36   -0.22
#  50   -0.27   -0.09    0.00    0.22   -0.03    0.00    0.00      -0.17    2.15   -0.28
#  51   -0.17   -0.04    0.00    0.29   -0.01    0.00    0.00       0.07    7.36   -0.27
#  52   -0.62   -0.03    0.00    0.29   -0.01    0.00    0.00      -0.37    8.95   -0.27
#  53   -0.16   -0.02    0.00    0.23   -0.01    0.00    0.00       0.04    8.14   -0.28
#  54   -0.84   -0.03    0.00    0.27   -0.01    0.00    0.00      -0.61    7.82   -0.28
#  55   -0.31   -0.03    0.00    0.18   -0.01    0.00    0.00      -0.16    5.47   -0.20
#  56   -0.49   -0.17    0.03    0.73   -0.03    0.00    0.00       0.08    5.61   -0.20
#  57   -0.34   -0.13    0.01    0.52   -0.03    0.00    0.00       0.03    4.45   -0.28
#  58   -6.41   -1.45    3.33    2.50   -0.08    0.00    0.00      -2.12    6.38   -0.20
#  59   -0.73   -1.25    2.64    1.93   -0.10    0.00    0.00       2.50    5.26   -0.28
#  60   -2.60   -0.16    0.01    1.78   -0.05    0.00    0.00      -1.03    9.41   -0.28
#  61   -2.61   -0.10    0.01    0.75   -0.03    0.00    0.00      -1.98    7.50   -0.28
#  62   -1.55   -0.93    1.71    2.34   -0.06    0.00    0.00       1.50    8.39   -0.21
#  63  -10.16   -1.92    6.56    4.29   -0.13    0.00    0.00      -1.37    9.23   -0.28
#  64   -7.57   -1.14    1.44    4.35   -0.14    0.00    0.00      -3.06    8.91   -0.28
#  65   -7.75   -1.01    1.22    2.95   -0.08    0.00    0.00      -4.68    7.79   -0.20
#  66   -1.71   -0.06    0.00    0.44   -0.01    0.00    0.00      -1.34    7.56   -0.22

@<TRIPOS>MOLECULE
          T534607        45
   66    71     0     0     0



@<TRIPOS>ATOM
      1 F1          8.3316   -12.4635    97.0578 F          1          -0.1726
      2 C1          8.8516   -11.4628    97.8856 C.3        1           0.5124
      3 F2          8.7810   -11.8779    99.2197 F          1          -0.1755
      4 F3         10.1861   -11.2205    97.5426 F          1          -0.1724
      5 C2          8.0502   -10.1987    97.7097 C.ar       1          -0.1820
      6 C3          8.3908    -9.0637    98.4321 C.ar       1          -0.0530
      7 C4          7.6688    -7.8983    98.2844 C.ar       1          -0.1056
      8 C5          6.5942    -7.8612    97.4064 C.ar       1           0.0821
      9 N1          5.6918    -6.8835    97.0361 N.pl3      1          -0.5900
     10 C6          4.8452    -7.4413    96.1168 C.2        1           0.3179
     11 N2          5.1780    -8.6913    95.9084 N.2        1          -0.4662
     12 C7          6.2494    -9.0111    96.6741 C.ar       1           0.0446
     13 C8          6.9998   -10.1803    96.8369 C.ar       1          -0.0041
     14 C9          3.7226    -6.7385    95.4577 C.ar       1          -0.0164
     15 C10         3.3253    -7.1070    94.1739 C.ar       1          -0.0543
     16 C11         2.2691    -6.4415    93.5609 C.ar       1          -0.0682
     17 C12         1.6138    -5.4102    94.2331 C.ar       1          -0.0918
     18 C13         2.0111    -5.0486    95.5054 C.ar       1          -0.1091
     19 C14         3.0552    -5.7086    96.1225 C.ar       1          -0.0865
     20 C15         1.8403    -6.8276    92.1937 C.ar       1          -0.0204
     21 C16         0.5112    -6.6683    91.8065 C.ar       1          -0.0740
     22 C17         0.1180    -7.0286    90.5337 C.ar       1          -0.1024
     23 C18         1.0405    -7.5475    89.6429 C.ar       1          -0.1033
     24 C19         2.3608    -7.7082    90.0220 C.ar       1          -0.1635
     25 C20         3.3599    -8.2746    89.0463 C.3        1           0.0458
     26 N3          3.9694    -7.1803    88.2789 N.4        1          -0.3855
     27 H1          3.2503    -6.6837    87.7746 H          1           0.4262
     28 C21         4.9394    -7.7342    87.3259 C.3        1          -0.0297
     29 C22         5.4913    -6.6070    86.4470 C.3        1           0.0840
     30 N4          6.0324    -5.5557    87.3222 N.pl3      1          -0.6052
     31 C23         5.1815    -5.0558    88.4130 C.3        1           0.0825
     32 C24         4.6460    -6.2573    89.1989 C.3        1          -0.0228
     33 C25         7.3133    -5.0487    87.1241 C.ar       1           0.3151
     34 C26         7.8770    -5.0069    85.8491 C.ar       1          -0.2074
     35 C27         9.1488    -4.4965    85.6951 C.ar       1           0.1803
     36 N5          9.8297    -4.0517    86.7347 N.ar       1          -0.4827
     37 H2         10.7224    -3.6981    86.5967 H          1           0.4555
     38 C28         9.3312    -4.0739    87.9568 C.ar       1           0.1802
     39 C29         8.0644    -4.5639    88.1947 C.ar       1          -0.2080
     40 C30         2.7664    -7.3453    91.2907 C.ar       1          -0.0900
     41 H3          9.2270    -9.0935    99.1150 H          1           0.1503
     42 H4          7.9379    -7.0182    98.8497 H          1           0.1415
     43 H5          5.6632    -5.9718    97.3663 H          1           0.4282
     44 H6          6.7467   -11.0680    96.2764 H          1           0.1470
     45 H7          3.8358    -7.9059    93.6566 H          1           0.1454
     46 H8          0.7937    -4.8929    93.7573 H          1           0.1273
     47 H9          1.5005    -4.2489    96.0213 H          1           0.1389
     48 H10         3.3584    -5.4248    97.1194 H          1           0.1296
     49 H11        -0.2100    -6.2639    92.5014 H          1           0.1438
     50 H12        -0.9119    -6.9055    90.2326 H          1           0.1420
     51 H13         0.7285    -7.8285    88.6479 H          1           0.1311
     52 H14         4.1357    -8.8121    89.5916 H          1           0.1434
     53 H15         2.8544    -8.9588    88.3648 H          1           0.1396
     54 H16         5.7580    -8.2033    87.8717 H          1           0.1389
     55 H17         4.4482    -8.4774    86.6979 H          1           0.1556
     56 H18         6.2841    -6.9956    85.8078 H          1           0.1356
     57 H19         4.6901    -6.1959    85.8327 H          1           0.1133
     58 H20         5.7695    -4.4187    89.0737 H          1           0.1363
     59 H21         4.3491    -4.4879    87.9974 H          1           0.1133
     60 H22         3.9384    -5.9113    89.9523 H          1           0.1553
     61 H23         5.4737    -6.7722    89.6869 H          1           0.1395
     62 H24         7.3254    -5.3695    84.9943 H          1           0.1805
     63 H25         9.5934    -4.4605    84.7116 H          1           0.2123
     64 H26         9.9215    -3.6998    88.7802 H          1           0.2123
     65 H27         7.6609    -4.5751    89.1964 H          1           0.1801
     66 H28         3.7985    -7.4669    91.5844 H          1           0.1350
@<TRIPOS>BOND
     1    1    2 1
     2    2    3 1
     3    2    4 1
     4    2    5 1
     5    5   13 ar
     6    5    6 ar
     7    6    7 ar
     8    6   41 1
     9    7    8 ar
    10    7   42 1
    11    8   12 ar
    12    8    9 1
    13    9   10 1
    14    9   43 1
    15   10   11 2
    16   10   14 1
    17   11   12 1
    18   12   13 ar
    19   13   44 1
    20   14   19 ar
    21   14   15 ar
    22   15   16 ar
    23   15   45 1
    24   16   17 ar
    25   16   20 1
    26   17   18 ar
    27   17   46 1
    28   18   19 ar
    29   18   47 1
    30   19   48 1
    31   20   40 ar
    32   20   21 ar
    33   21   22 ar
    34   21   49 1
    35   22   23 ar
    36   22   50 1
    37   23   24 ar
    38   23   51 1
    39   24   25 1
    40   24   40 ar
    41   25   26 1
    42   25   52 1
    43   25   53 1
    44   26   27 1
    45   26   32 1
    46   26   28 1
    47   28   29 1
    48   28   54 1
    49   28   55 1
    50   29   30 1
    51   29   56 1
    52   29   57 1
    53   30   31 1
    54   30   33 1
    55   31   32 1
    56   31   58 1
    57   31   59 1
    58   32   60 1
    59   32   61 1
    60   33   39 ar
    61   33   34 ar
    62   34   35 ar
    63   34   62 1
    64   35   36 ar
    65   35   63 1
    66   36   37 1
    67   36   38 ar
    68   38   39 ar
    69   38   64 1
    70   39   65 1
    71   40   66 1
##########                 Name:              T540203
##########          Protonation:                   49
##########               SMILES:   C[NH+]1CC[C@@H](CC1)[NH2+]Cc2cc(c(cc2)OC)c3sc(cc3)S(=O)(=O)NC4CCC4
##########            Long Name:   l)-2-thienyl]-4-methoxy-phenyl]methyl-(1-methylpiperidin-1-ium-4-yl)ammonium
##########          FlexRecCode: 1
##########               Number:                  166
##########   Ligand Source File: /raidb/db2/rgc/tcams/tcams-0002015.db2.gz
##########           GlobalRank: 264
##########                 Rank:                    1
##########               Setnum:                  156
##########             Matchnum:                 3724
##########                Cloud:                    1
##########        Electrostatic:           -56.738621
##########        Van der Waals:           -21.462248
##########  Ligand Polar Desolv:            14.864964
########## Ligand Apolar Desolv:            -2.114833
##########      Internal Energy:             0.000000
##########      Receptor Energy: 0.0
########## Receptor Desolvation:             0.000000
########## Receptor Hydrophobic:             0.000000
##########         Total Energy: -65.45
##########        Ligand Charge:             2.000000
##########            Arbitrary:    +999.9990
##########     heavy atom count:   30
##########           pose count:    1
##########        Ligand Energy:             0.000000
# num electro vdwattr vdwrepu polsolv apolsol rdesolv rhydroe totalscore fullpol fullapo
#   1   -0.48   -1.56    0.45    0.19    0.01    0.00    0.00      -1.39    0.42    0.03
#   2    3.87   -1.38    0.25   -2.56    0.32    0.00    0.00       0.49   -6.71    0.84
#   3   -3.43   -1.42    0.42    0.80   -0.10    0.00    0.00      -3.72    2.47   -0.31
#   4    6.56   -2.01    0.71   -2.49   -0.15    0.00    0.00       2.63   -6.91   -0.42
#   5    1.21   -2.88    2.30   -0.06   -0.15    0.00    0.00       0.42   -0.18   -0.45
#   6    6.19   -1.29    0.38   -1.28   -0.09    0.00    0.00       3.92   -5.10   -0.37
#   7   -1.45   -0.78    0.26    0.83   -0.10    0.00    0.00      -1.23    3.44   -0.40
#   8   13.20   -0.70    0.15   -5.45    0.13    0.00    0.00       7.33  -26.35    0.63
#   9  -16.22   -0.03    0.00    5.17    0.12    0.00    0.00     -10.96   25.09    0.56
#  10   -7.17   -0.01    0.00    1.67    0.04    0.00    0.00      -5.47   24.33    0.56
#  11   -0.27   -0.40    0.03    0.56   -0.05    0.00    0.00      -0.13    2.69   -0.23
#  12    1.73   -0.44    0.05   -1.85   -0.04    0.00    0.00      -0.53   -9.91   -0.19
#  13    0.04   -0.37    0.01   -0.03   -0.09    0.00    0.00      -0.44   -0.16   -0.42
#  14   10.01   -0.74    0.04   -5.83    0.18    0.00    0.00       3.65  -17.96    0.56
#  15  -10.13   -0.01    0.00    3.10    0.08    0.00    0.00      -6.96   21.97    0.56
#  16    1.71   -1.30    0.29   -1.35   -0.18    0.00    0.00      -0.83   -3.25   -0.44
#  17    0.07   -1.08    0.35   -0.06   -0.16    0.00    0.00      -0.88   -0.15   -0.42
#  18    5.12   -0.70    0.14   -2.55   -0.06    0.00    0.00       1.95   -9.05   -0.22
#  19    0.55   -0.60    0.04   -0.11   -0.09    0.00    0.00      -0.20   -0.56   -0.44
#  20    0.34   -0.81    0.10   -0.81   -0.09    0.00    0.00      -1.26   -3.66   -0.41
#  21    0.30   -0.66    0.06    0.11   -0.06    0.00    0.00      -0.24    0.55   -0.28
#  22    0.41   -1.37    0.42   -1.14   -0.14    0.00    0.00      -1.82   -3.76   -0.45
#  23    0.01   -1.14    0.19    0.02   -0.14    0.00    0.00      -1.06    0.07   -0.46
#  24    1.28   -0.52    0.03   -1.85   -0.03    0.00    0.00      -1.08  -10.25   -0.16
#  25   -0.36   -0.40    0.01    0.35   -0.08    0.00    0.00      -0.48    3.44   -0.83
#  26   -3.50   -1.03    0.25    3.97   -0.03    0.00    0.00      -0.35   24.32   -0.21
#  27    1.34   -1.82    1.41   -1.91    0.41    0.00    0.00      -0.57   -6.93    1.50
#  28    0.98   -0.16    0.00   -0.41    0.12    0.00    0.00       0.53   -5.21    1.54
#  29    1.18   -0.94    0.23   -2.56    0.22    0.00    0.00      -1.87  -11.98    1.04
#  30   -0.12   -0.25    0.01    0.21   -0.06    0.00    0.00      -0.22    1.42   -0.43
#  31    0.14   -0.42    0.06   -0.37   -0.07    0.00    0.00      -0.65   -1.88   -0.33
#  32    0.11   -0.70    0.13   -0.60   -0.11    0.00    0.00      -1.17   -1.84   -0.34
#  33    0.15   -0.33    0.01   -0.42   -0.07    0.00    0.00      -0.65   -1.92   -0.32
#  34   -1.83   -0.65    0.57    0.57   -0.10    0.00    0.00      -1.45    1.44   -0.26
#  35   -4.58   -0.83    0.68    0.58   -0.13    0.00    0.00      -4.28    1.27   -0.28
#  36   -2.27   -0.42    0.11    0.67   -0.10    0.00    0.00      -2.01    1.85   -0.27
#  37   -5.43   -0.44    0.12    1.23   -0.08    0.00    0.00      -4.61    3.29   -0.22
#  38   -5.38   -1.22    2.67    3.29   -0.10    0.00    0.00      -0.74    9.00   -0.28
#  39   -2.52   -0.09    0.00    0.92   -0.02    0.00    0.00      -1.71    9.48   -0.22
#  40   -5.76   -0.60    0.66    2.87   -0.08    0.00    0.00      -2.91   10.32   -0.28
#  41   -2.00   -0.11    0.01    1.17   -0.03    0.00    0.00      -0.97   11.15   -0.28
#  42   -0.54   -0.12    0.01    0.73   -0.02    0.00    0.00       0.06    6.54   -0.22
#  43   -0.29   -0.29    0.15    1.19   -0.04    0.00    0.00       0.73    7.31   -0.22
#  44   -2.97   -0.13    0.01    0.79   -0.04    0.00    0.00      -2.34    5.80   -0.28
#  45   -2.26   -0.09    0.00    0.65   -0.02    0.00    0.00      -1.73    8.07   -0.28
#  46   -4.13   -0.96    1.03    1.89   -0.12    0.00    0.00      -2.29    4.50   -0.28
#  47   -3.64   -0.64    0.59    1.59   -0.10    0.00    0.00      -2.20    4.43   -0.28
#  48   -2.91   -0.29    0.04    2.08   -0.04    0.00    0.00      -1.12    7.66   -0.15
#  49   -7.45   -0.75    0.92    1.76   -0.09    0.00    0.00      -5.61    5.64   -0.28
#  50   -5.63   -0.38    0.06    3.13   -0.11    0.00    0.00      -2.93    7.94   -0.28
#  51   -2.91   -0.14    0.00    0.87   -0.04    0.00    0.00      -2.21    6.67   -0.28
#  52   -4.31   -0.41    0.26    1.58   -0.06    0.00    0.00      -2.93    6.21   -0.22
#  53   -1.52   -0.06    0.00    0.38   -0.01    0.00    0.00      -1.21    7.47   -0.28
#  54   -0.49   -0.49    0.27    0.69   -0.08    0.00    0.00      -0.10    2.32   -0.28
#  55   -0.30   -0.42    0.12    0.47   -0.09    0.00    0.00      -0.21    1.46   -0.28
#  56   -0.44   -0.03    0.00    1.30    0.17    0.00    0.00       1.01    5.12    0.69
#  57   -0.12   -0.03    0.00    0.06   -0.01    0.00    0.00      -0.10    1.71   -0.26
#  58   -0.07   -0.25    0.11    0.19   -0.05    0.00    0.00      -0.07    1.08   -0.28
#  59   -0.07   -0.06    0.00    0.10   -0.02    0.00    0.00      -0.06    1.34   -0.28
#  60   -0.04   -0.49    0.37    0.26   -0.09    0.00    0.00       0.02    0.85   -0.28
#  61   -0.07   -0.20    0.02    0.36   -0.07    0.00    0.00       0.04    1.49   -0.28
#  62   -0.10   -0.06    0.00    0.05   -0.02    0.00    0.00      -0.13    0.83   -0.28
#  63   -0.10   -0.15    0.01    0.17   -0.05    0.00    0.00      -0.12    1.00   -0.28

@<TRIPOS>MOLECULE
          T540203        49
   63    66     0     0     0



@<TRIPOS>ATOM
      1 C1          8.1545    -3.9185    85.8841 C.3        1           0.0160
      2 O1          7.0111    -4.7407    86.1271 O.3        1          -0.2931
      3 C2          6.8786    -5.2595    87.3758 C.ar       1           0.2015
      4 C3          7.8239    -4.9800    88.3486 C.ar       1          -0.2038
      5 C4          7.6883    -5.5085    89.6189 C.ar       1          -0.0346
      6 C5          6.6099    -6.3191    89.9274 C.ar       1          -0.2174
      7 C6          6.4726    -6.8896    91.3155 C.3        1           0.0503
      8 N1          5.0850    -6.7358    91.7729 N.4        1          -0.5082
      9 H1          4.8418    -5.7567    91.7861 H          1           0.4369
     10 H2          4.4674    -7.2275    91.1446 H          1           0.4289
     11 C7          4.9511    -7.2919    93.1260 C.3        1           0.0143
     12 C8          3.4762    -7.5793    93.4193 C.3        1          -0.1767
     13 C9          2.6908    -6.2671    93.3698 C.3        1          -0.0024
     14 N2          3.2177    -5.3355    94.3747 N.4        1          -0.3878
     15 H3          3.1601    -5.7609    95.2877 H          1           0.4447
     16 C10         2.4198    -4.1022    94.3608 C.3        1          -0.0627
     17 C11         4.6181    -5.0107    94.0768 C.3        1          -0.0020
     18 C12         5.4700    -6.2795    94.1507 C.3        1          -0.1745
     19 C13         5.6598    -6.6067    88.9690 C.ar       1          -0.0344
     20 C14         5.7830    -6.0740    87.6856 C.ar       1          -0.0417
     21 C15         4.7650    -6.3729    86.6564 C.2        1          -0.0982
     22 C16         4.3635    -5.6099    85.5928 C.2        1          -0.1474
     23 C17         3.3853    -6.1025    84.7562 C.2        1          -0.0070
     24 C18         2.8514    -7.3242    85.0104 C.2        1          -0.7451
     25 S1          3.7448    -7.8264    86.4720 S.3        1           0.1813
     26 S2          1.6023    -8.1937    84.1224 S.o2       1           2.7193
     27 O2          1.6174    -7.6838    82.7961 O.2        1          -0.9449
     28 O3          1.7849    -9.5731    84.4103 O.2        1          -0.9427
     29 N3          0.1444    -7.7620    84.7786 N.pl3      1          -1.0973
     30 C19        -0.1287    -8.0256    86.1936 C.3        1           0.1196
     31 C20        -1.6182    -7.9908    86.5512 C.3        1          -0.1539
     32 C21        -1.4405    -6.4783    86.7197 C.3        1          -0.1421
     33 C22         0.0132    -6.7907    87.0896 C.3        1          -0.1421
     34 H4          8.1387    -3.5703    84.8513 H          1           0.0681
     35 H5          8.1352    -3.0612    86.5569 H          1           0.1175
     36 H6          9.0616    -4.4970    86.0587 H          1           0.0669
     37 H7          8.6683    -4.3487    88.1144 H          1           0.1513
     38 H8          8.4280    -5.2879    90.3742 H          1           0.1399
     39 H9          6.7353    -7.9472    91.3013 H          1           0.1393
     40 H10         7.1399    -6.3585    91.9943 H          1           0.1447
     41 H11         5.5263    -8.2148    93.2004 H          1           0.1590
     42 H12         3.0834    -8.2679    92.6712 H          1           0.1143
     43 H13         3.3815    -8.0237    94.4101 H          1           0.1376
     44 H14         2.7876    -5.8240    92.3787 H          1           0.1525
     45 H15         1.6392    -6.4662    93.5763 H          1           0.1439
     46 H16         2.8094    -3.4090    95.1063 H          1           0.1346
     47 H17         2.4766    -3.6438    93.3735 H          1           0.1344
     48 H18         1.3813    -4.3388    94.5922 H          1           0.1173
     49 H19         4.6866    -4.5860    93.0753 H          1           0.1522
     50 H20         4.9844    -4.2854    94.8035 H          1           0.1437
     51 H21         5.4021    -6.7064    95.1513 H          1           0.1374
     52 H22         6.5086    -6.0348    93.9278 H          1           0.1132
     53 H23         4.8198    -7.2400    89.2134 H          1           0.1410
     54 H24         4.8044    -4.6406    85.4131 H          1           0.1462
     55 H25         3.0476    -5.5236    83.9093 H          1           0.1554
     56 H26        -0.5287    -7.3347    84.2262 H          1           0.4253
     57 H27         0.3949    -8.9039    86.5709 H          1           0.1144
     58 H28        -2.2742    -8.2661    85.7253 H          1           0.0905
     59 H29        -1.8590    -8.5103    87.4786 H          1           0.0696
     60 H30        -1.5461    -5.9180    85.7907 H          1           0.0789
     61 H31        -2.0211    -6.0570    87.5403 H          1           0.0855
     62 H32         0.1566    -7.0277    88.1438 H          1           0.0800
     63 H33         0.7283    -6.0577    86.7161 H          1           0.0926
@<TRIPOS>BOND
     1    1    2 1
     2    1   34 1
     3    1   35 1
     4    1   36 1
     5    2    3 1
     6    3   20 ar
     7    3    4 ar
     8    4    5 ar
     9    4   37 1
    10    5    6 ar
    11    5   38 1
    12    6    7 1
    13    6   19 ar
    14    7    8 1
    15    7   39 1
    16    7   40 1
    17    8    9 1
    18    8   10 1
    19    8   11 1
    20   11   18 1
    21   11   12 1
    22   11   41 1
    23   12   13 1
    24   12   42 1
    25   12   43 1
    26   13   14 1
    27   13   44 1
    28   13   45 1
    29   14   15 1
    30   14   16 1
    31   14   17 1
    32   16   46 1
    33   16   47 1
    34   16   48 1
    35   17   18 1
    36   17   49 1
    37   17   50 1
    38   18   51 1
    39   18   52 1
    40   19   20 ar
    41   19   53 1
    42   20   21 1
    43   21   25 1
    44   21   22 2
    45   22   23 1
    46   22   54 1
    47   23   24 2
    48   23   55 1
    49   24   25 1
    50   24   26 1
    51   26   27 2
    52   26   28 2
    53   26   29 1
    54   29   30 1
    55   29   56 1
    56   30   33 1
    57   30   31 1
    58   30   57 1
    59   31   32 1
    60   31   58 1
    61   31   59 1
    62   32   33 1
    63   32   60 1
    64   32   61 1
    65   33   62 1
    66   33   63 1
##########                 Name:              T535590
##########          Protonation:                  100
##########               SMILES:   c1c(cc(cc1NC(=O)Nc2cc(cc(c2)Br)C(=[NH2+])N)Br)C(=[NH2+])N
##########            Long Name:   ene)methyl]-5-bromo-phenyl]carbamoylamino]-5-bromo-phenyl]methylene]ammonium
##########          FlexRecCode: 1
##########               Number:                  211
##########   Ligand Source File: /raidb/db2/rgc/tcams/tcams-0001401.db2.gz
##########           GlobalRank: 265
##########                 Rank:                    1
##########               Setnum:                   40
##########             Matchnum:                 4216
##########                Cloud:                    1
##########        Electrostatic:           -58.741291
##########        Van der Waals:           -18.083988
##########  Ligand Polar Desolv:            12.021717
########## Ligand Apolar Desolv:            -0.637617
##########      Internal Energy:             0.000000
##########      Receptor Energy: 0.0
########## Receptor Desolvation:             0.000000
########## Receptor Hydrophobic:             0.000000
##########         Total Energy: -65.44
##########        Ligand Charge:             2.000000
##########            Arbitrary:    +999.9990
##########     heavy atom count:   24
##########           pose count:    1
##########        Ligand Energy:             0.000000
# num electro vdwattr vdwrepu polsolv apolsol rdesolv rhydroe totalscore fullpol fullapo
#   1   27.28   -2.56    0.81  -13.08    0.41    0.00    0.00      12.86  -27.74    0.87
#   2  -17.09   -1.33    0.15    8.69   -0.86    0.00    0.00     -10.44   22.42   -2.23
#   3   23.40   -2.41    1.28  -10.62    0.33    0.00    0.00      11.97  -28.31    0.87
#   4  -19.52   -0.15    0.04    7.02    0.18    0.00    0.00     -12.42   17.69    0.45
#   5  -11.51   -0.02    0.00    4.11    0.13    0.00    0.00      -7.29   18.40    0.59
#   6    2.33   -0.67    0.03   -0.76   -0.11    0.00    0.00       0.82   -2.76   -0.41
#   7    0.84   -0.39    0.01   -0.24   -0.06    0.00    0.00       0.16   -1.57   -0.38
#   8   -1.46   -0.23    0.00    0.43   -0.06    0.00    0.00      -1.32    4.80   -0.68
#   9    4.73   -0.18    0.00   -1.46    0.13    0.00    0.00       3.22  -19.85    1.70
#  10   -7.21   -0.39    0.03    2.84   -0.27    0.00    0.00      -4.99   21.20   -2.02
#  11    9.11   -0.84    0.16   -3.80    0.06    0.00    0.00       4.70  -17.49    0.29
#  12    4.91   -0.35    0.02   -2.60    0.22    0.00    0.00       2.21  -19.85    1.70
#  13   -1.43   -0.69    0.10    0.98   -0.14    0.00    0.00      -1.18    4.84   -0.68
#  14    0.85   -0.86    0.15   -0.38   -0.09    0.00    0.00      -0.33   -1.59   -0.37
#  15    1.70   -0.95    0.12   -0.72   -0.11    0.00    0.00       0.04   -2.69   -0.40
#  16    0.30   -1.28    0.26   -0.52   -0.13    0.00    0.00      -1.37   -1.69   -0.41
#  17    0.21   -1.57    0.45   -0.81   -0.09    0.00    0.00      -1.81   -2.58   -0.30
#  18   -0.01   -8.40    7.54   -1.00   -0.49    0.00    0.00      -2.36   -2.24   -1.09
#  19    0.28   -0.99    0.17   -0.62   -0.12    0.00    0.00      -1.28   -2.44   -0.45
#  20  -13.75   -0.97    0.09    6.93   -0.67    0.00    0.00      -8.38   22.33   -2.17
#  21   29.18   -2.40    2.56   -9.46    0.30    0.00    0.00      20.18  -27.57    0.87
#  22   14.91   -1.09    0.09  -10.71    0.33    0.00    0.00       3.53  -28.22    0.87
#  23   -6.19   -0.02    0.00    4.04    0.13    0.00    0.00      -2.03   18.36    0.59
#  24  -10.55   -0.03    0.00    4.38    0.13    0.00    0.00      -6.06   17.87    0.52
#  25    0.17   -0.21    0.00   -0.19   -0.04    0.00    0.00      -0.26   -2.43   -0.45
#  26    0.17   -0.38    0.01   -0.43   -0.05    0.00    0.00      -0.68   -2.60   -0.30
#  27   -0.03   -1.16    0.15   -0.34   -0.16    0.00    0.00      -1.53   -2.22   -1.09
#  28    0.63   -0.79    0.07   -0.47   -0.12    0.00    0.00      -0.68   -1.72   -0.43
#  29  -16.44   -0.05    0.00    8.10    0.27    0.00    0.00      -8.12   17.81    0.59
#  30  -18.92   -0.08    0.01    6.92    0.19    0.00    0.00     -11.89   16.70    0.45
#  31   -2.67   -0.08    0.00    0.51   -0.01    0.00    0.00      -2.25    6.63   -0.17
#  32   -1.85    0.00    0.00    0.34    0.02    0.00    0.00      -1.50   13.44    0.59
#  33   -2.07    0.00    0.00    0.51    0.02    0.00    0.00      -1.53   13.44    0.59
#  34   -3.33   -0.15    0.02    1.03   -0.03    0.00    0.00      -2.48    6.32   -0.19
#  35   -0.87   -0.26    0.03    1.39   -0.06    0.00    0.00       0.22    5.80   -0.25
#  36   -0.95   -0.16    0.01    0.60   -0.05    0.00    0.00      -0.55    3.68   -0.28
#  37  -19.47   -0.05    0.01    4.22    0.13    0.00    0.00     -15.16   16.69    0.52
#  38  -20.70   -0.06    0.01    5.37    0.18    0.00    0.00     -15.19   17.70    0.59
#  39   -0.25   -0.02    0.00    0.11   -0.01    0.00    0.00      -0.18    3.67   -0.28
#  40   -3.46   -0.37    0.12    1.73   -0.06    0.00    0.00      -2.05    6.00   -0.22

@<TRIPOS>MOLECULE
          T535590       100
   40    41     0     0     0



@<TRIPOS>ATOM
      1 N1          9.1254    -4.0239    86.5657 N.pl3      1          -0.7533
      2 C1          8.5016    -4.9469    87.2946 C.cat      1           0.6035
      3 N2          7.3031    -4.6876    87.8132 N.pl3      1          -0.7579
      4 H1          6.8844    -3.8262    87.6600 H          1           0.4438
      5 H2          6.8485    -5.3602    88.3443 H          1           0.4368
      6 C2          9.1402    -6.2612    87.5282 C.ar       1          -0.1233
      7 C3          8.4863    -7.2315    88.2865 C.ar       1          -0.0581
      8 C4          9.0900    -8.4609    88.5011 C.ar       1           0.1795
      9 N3          8.4372    -9.4378    89.2616 N.am       1          -0.6733
     10 C5          8.1085    -9.1852    90.5441 C.2        1           0.7198
     11 O1          8.3792    -8.1088    91.0404 O.2        1          -0.5705
     12 N4          7.4798   -10.1260    91.2764 N.am       1          -0.6729
     13 C6          7.1385    -9.8637    92.6082 C.ar       1           0.1788
     14 C7          6.8465    -8.5684    93.0067 C.ar       1          -0.0604
     15 C8          6.5066    -8.3117    94.3342 C.ar       1          -0.1260
     16 C9          6.4622    -9.3602    95.2537 C.ar       1          -0.0490
     17 C10         6.7546   -10.6474    94.8476 C.ar       1          -0.0709
     18 Br1         6.6938   -12.0664    96.0960 Br         1           0.0152
     19 C11         7.0867   -10.9024    93.5295 C.ar       1          -0.0571
     20 C12         6.1942    -6.9314    94.7668 C.cat      1           0.6042
     21 N5          6.2376    -5.9324    93.8877 N.pl3      1          -0.7503
     22 N6          5.8699    -6.6885    96.0350 N.pl3      1          -0.7557
     23 H3          5.8383    -7.4163    96.6755 H          1           0.4361
     24 H4          5.6651    -5.7837    96.3186 H          1           0.4463
     25 C13        10.3430    -8.7234    87.9610 C.ar       1          -0.0541
     26 C14        10.9920    -7.7612    87.2088 C.ar       1          -0.0710
     27 Br2        12.6971    -8.1276    86.4778 Br         1           0.0164
     28 C15        10.3961    -6.5354    86.9856 C.ar       1          -0.0466
     29 H5          8.7077    -3.1617    86.4141 H          1           0.4382
     30 H6          9.9995    -4.2120    86.1896 H          1           0.4467
     31 H7          7.5125    -7.0259    88.7056 H          1           0.1560
     32 H8          8.2213   -10.2966    88.8656 H          1           0.4271
     33 H9          7.2639   -10.9847    90.8804 H          1           0.4268
     34 H10         6.8827    -7.7604    92.2909 H          1           0.1584
     35 H11         6.1996    -9.1650    96.2830 H          1           0.1548
     36 H12         7.3105   -11.9115    93.2162 H          1           0.1612
     37 H13         6.4741    -6.1094    92.9637 H          1           0.4489
     38 H14         6.0329    -5.0276    94.1713 H          1           0.4378
     39 H15        10.8117    -9.6817    88.1294 H          1           0.1622
     40 H16        10.9038    -5.7878    86.3941 H          1           0.1522
@<TRIPOS>BOND
     1    1    2 1
     2    1   29 1
     3    1   30 1
     4    2    3 2
     5    2    6 1
     6    3    4 1
     7    3    5 1
     8    6   28 ar
     9    6    7 ar
    10    7    8 ar
    11    7   31 1
    12    8    9 1
    13    8   25 ar
    14    9   10 am
    15    9   32 1
    16   10   11 2
    17   10   12 am
    18   12   13 1
    19   12   33 1
    20   13   19 ar
    21   13   14 ar
    22   14   15 ar
    23   14   34 1
    24   15   16 ar
    25   15   20 1
    26   16   17 ar
    27   16   35 1
    28   17   18 1
    29   17   19 ar
    30   19   36 1
    31   20   21 1
    32   20   22 2
    33   21   37 1
    34   21   38 1
    35   22   23 1
    36   22   24 1
    37   25   26 ar
    38   25   39 1
    39   26   27 1
    40   26   28 ar
    41   28   40 1
##########                 Name:              T534271
##########          Protonation:                   41
##########               SMILES:   C[NH+]1CCN(CC1)c2cc[nH+]c3c2cc(cc3)NC(=O)Nc4ccc5ccccc5c4
##########            Long Name:   1-[4-(4-methylpiperazin-4-ium-1-yl)quinolin-1-ium-6-yl]-3-(2-naphthyl)urea
##########          FlexRecCode: 1
##########               Number:                   12
##########   Ligand Source File: /raidb/db2/rgc/tcams/tcams-0001193.db2.gz
##########           GlobalRank: 267
##########                 Rank:                    1
##########               Setnum:                  168
##########             Matchnum:                 5068
##########                Cloud:                    1
##########        Electrostatic:           -57.225105
##########        Van der Waals:           -26.826242
##########  Ligand Polar Desolv:            23.106045
########## Ligand Apolar Desolv:            -4.487888
##########      Internal Energy:             0.000000
##########      Receptor Energy: 0.0
########## Receptor Desolvation:             0.000000
########## Receptor Hydrophobic:             0.000000
##########         Total Energy: -65.43
##########        Ligand Charge:             2.000000
##########            Arbitrary:    +999.9990
##########     heavy atom count:   31
##########           pose count:    1
##########        Ligand Energy:             0.000000
# num electro vdwattr vdwrepu polsolv apolsol rdesolv rhydroe totalscore fullpol fullapo
#   1    1.68   -1.14    0.50   -0.73   -0.17    0.00    0.00       0.15   -2.01   -0.48
#   2   10.22   -0.98    0.10   -6.38    0.15    0.00    0.00       3.13  -16.42    0.39
#   3  -10.00   -0.02    0.00    5.47    0.14    0.00    0.00      -4.41   21.32    0.54
#   4    0.43   -0.58    0.03   -0.27   -0.12    0.00    0.00      -0.50   -0.86   -0.40
#   5   -1.79   -0.43    0.02    1.01   -0.10    0.00    0.00      -1.29    4.76   -0.49
#   6   17.05   -0.78    0.03   -8.28    0.33    0.00    0.00       8.36  -28.97    1.17
#   7   -4.29   -1.23    0.27    2.01   -0.21    0.00    0.00      -3.45    4.71   -0.49
#   8    0.91   -1.37    0.27   -0.36   -0.19    0.00    0.00      -0.73   -0.75   -0.40
#   9   -6.68   -0.83    0.04    3.88   -0.16    0.00    0.00      -3.73   13.60   -0.55
#  10    0.90   -0.99    0.19   -0.72   -0.10    0.00    0.00      -0.73   -2.85   -0.40
#  11    1.69   -1.27    0.55   -0.39   -0.11    0.00    0.00       0.48   -1.56   -0.44
#  12   -0.44   -1.76    1.92    0.98   -0.17    0.00    0.00       0.54    3.90   -0.67
#  13    1.55   -1.14    0.28   -4.67    0.43    0.00    0.00      -3.54  -18.29    1.69
#  14   -1.22   -0.44    0.02    2.55   -0.34    0.00    0.00       0.58   15.25   -2.02
#  15    0.75   -0.21    0.00   -1.06    0.03    0.00    0.00      -0.49  -10.37    0.28
#  16    1.30   -0.41    0.02   -2.24    0.26    0.00    0.00      -1.07  -14.34    1.69
#  17   -0.39   -0.90    0.18    0.66   -0.15    0.00    0.00      -0.59    2.99   -0.67
#  18    0.47   -0.92    0.16   -0.36   -0.09    0.00    0.00      -0.74   -1.56   -0.40
#  19    0.84   -2.02    1.48   -0.44   -0.14    0.00    0.00      -0.28   -1.41   -0.46
#  20    0.30   -2.93    2.80   -0.44   -0.16    0.00    0.00      -0.43   -1.12   -0.40
#  21    2.92   -3.67    3.47   -0.57   -0.22    0.00    0.00       1.93   -1.20   -0.46
#  22    2.07   -3.20    2.11   -0.86   -0.29    0.00    0.00      -0.18   -1.42   -0.47
#  23    0.67   -2.84    1.09   -0.87   -0.28    0.00    0.00      -2.23   -1.46   -0.47
#  24    0.47   -2.68    0.97   -0.69   -0.23    0.00    0.00      -2.17   -1.36   -0.46
#  25    0.13   -2.43    1.30   -0.33   -0.16    0.00    0.00      -1.49   -0.81   -0.40
#  26    0.32   -1.84    1.00   -0.71   -0.15    0.00    0.00      -1.38   -2.20   -0.45
#  27    0.06   -1.69    1.67   -0.87   -0.11    0.00    0.00      -0.94   -3.16   -0.40
#  28    0.76   -1.32    0.44   -1.14   -0.14    0.00    0.00      -1.40   -3.64   -0.46
#  29   -1.75   -1.03    0.16    1.25   -0.22    0.00    0.00      -1.59    4.12   -0.73
#  30   10.08   -1.22    0.17   -6.35    0.36    0.00    0.00       3.03  -16.87    0.96
#  31  -11.22   -0.03    0.00    4.43    0.15    0.00    0.00      -6.68   17.70    0.58
#  32   -5.95   -1.65    0.34    4.04   -0.39    0.00    0.00      -3.60    9.95   -0.96
#  33    4.28   -1.24    0.14   -2.65   -0.18    0.00    0.00       0.35   -6.92   -0.47
#  34   -4.92   -0.37    0.27    0.95   -0.06    0.00    0.00      -4.12    4.78   -0.28
#  35   -5.91   -0.80    1.11    2.17   -0.12    0.00    0.00      -3.55    5.16   -0.28
#  36   -2.92   -0.24    0.04    1.14   -0.06    0.00    0.00      -2.04    5.53   -0.28
#  37   -1.15   -0.21    0.03    1.22   -0.04    0.00    0.00      -0.15    6.87   -0.24
#  38   -2.45   -0.20    0.01    1.78   -0.07    0.00    0.00      -0.93    7.46   -0.28
#  39   -2.04   -0.10    0.00    0.42   -0.03    0.00    0.00      -1.74    4.40   -0.27
#  40   -0.73   -0.17    0.03    0.64   -0.04    0.00    0.00      -0.27    4.69   -0.28
#  41   -6.32   -0.90    1.52    1.24   -0.09    0.00    0.00      -4.55    3.82   -0.27
#  42   -3.73   -0.57    0.17    2.09   -0.12    0.00    0.00      -2.15    4.73   -0.28
#  43   -4.40   -0.64    0.27    2.53   -0.10    0.00    0.00      -2.34    6.91   -0.28
#  44   -5.04   -0.63    0.17    3.21   -0.12    0.00    0.00      -2.41    6.34   -0.24
#  45   -2.99   -0.17    0.02    1.61   -0.03    0.00    0.00      -1.57    9.41   -0.17
#  46   -1.20   -0.03    0.00    4.43    0.17    0.00    0.00       3.37   15.60    0.59
#  47   -0.69    0.00    0.00    0.50    0.02    0.00    0.00      -0.16   12.01    0.59
#  48   -1.36   -0.09    0.00    0.21   -0.02    0.00    0.00      -1.27    1.97   -0.21
#  49   -3.95   -0.36    0.10    0.44   -0.07    0.00    0.00      -3.84    1.71   -0.28
#  50   -5.00   -0.62    0.26    0.61   -0.12    0.00    0.00      -4.87    1.45   -0.28
#  51   -1.98   -0.55    0.15    0.71   -0.16    0.00    0.00      -1.82    1.28   -0.28
#  52   -1.31   -0.75    0.85    0.89   -0.16    0.00    0.00      -0.48    1.54   -0.28
#  53   -0.43   -0.72    0.67    1.15   -0.14    0.00    0.00       0.54    2.35   -0.28
#  54   -0.26   -0.33    0.09    0.90   -0.07    0.00    0.00       0.33    3.47   -0.28
#  55   -0.19   -0.21    0.04    0.24   -0.05    0.00    0.00      -0.17    1.08   -0.21
#  56   -1.54   -0.32    0.10    1.27   -0.08    0.00    0.00      -0.57    4.45   -0.28
#  57   -7.62   -0.74    0.61    4.80   -0.11    0.00    0.00      -3.07   11.80   -0.28
#  58   -5.20   -0.30    0.04    3.04   -0.09    0.00    0.00      -2.52    9.04   -0.28

@<TRIPOS>MOLECULE
          T534271        41
   58    62     0     0     0



@<TRIPOS>ATOM
      1 C1          6.3816    -6.1318    94.2531 C.3        1          -0.0496
      2 N1          5.5420    -5.9049    95.4369 N.4        1          -0.3845
      3 H1          6.1131    -5.9604    96.2669 H          1           0.4302
      4 C2          4.4971    -6.9350    95.4963 C.3        1          -0.0268
      5 C3          3.6969    -6.9241    94.1902 C.3        1           0.1144
      6 N2          3.1977    -5.5570    93.9835 N.pl3      1          -0.6903
      7 C4          4.1571    -4.4447    94.0415 C.3        1           0.1143
      8 C5          4.9345    -4.5707    95.3534 C.3        1          -0.0270
      9 C6          1.8526    -5.3219    93.7388 C.ar       1           0.3150
     10 C7          1.3425    -5.3061    92.4182 C.ar       1          -0.0609
     11 C8          2.1762    -5.5267    91.3137 C.ar       1          -0.1321
     12 C9          1.6403    -5.5033    90.0441 C.ar       1           0.2248
     13 N3          2.4682    -5.7231    88.9367 N.am       1          -0.6852
     14 C10         2.2242    -6.7574    88.1077 C.2        1           0.7032
     15 O1          1.2851    -7.4997    88.3217 O.2        1          -0.5407
     16 N4          3.0212    -6.9690    87.0416 N.am       1          -0.6663
     17 C11         4.1016    -6.1152    86.7956 C.ar       1           0.1460
     18 C12         5.1164    -5.9888    87.7517 C.ar       1          -0.1205
     19 C13         6.1777    -5.1668    87.5393 C.ar       1          -0.0785
     20 C14         6.2653    -4.4297    86.3453 C.ar       1          -0.0582
     21 C15         7.3512    -3.5724    86.0983 C.ar       1          -0.1034
     22 C16         7.4063    -2.8729    84.9320 C.ar       1          -0.1100
     23 C17         6.4001    -2.9924    83.9752 C.ar       1          -0.1021
     24 C18         5.3335    -3.8125    84.1793 C.ar       1          -0.1127
     25 C19         5.2423    -4.5515    85.3718 C.ar       1          -0.0341
     26 C20         4.1587    -5.4121    85.6131 C.ar       1          -0.1242
     27 C21         0.2759    -5.2622    89.8534 C.ar       1          -0.0394
     28 C22        -0.5508    -5.0454    90.9111 C.ar       1          -0.1062
     29 C23        -0.0373    -5.0623    92.2197 C.ar       1           0.1276
     30 N5         -0.8361    -4.8522    93.2733 N.ar       1          -0.4466
     31 H2         -1.7802    -4.6866    93.1246 H          1           0.4543
     32 C24        -0.3750    -4.8651    94.5017 C.ar       1           0.2115
     33 C25         0.9651    -5.1011    94.7795 C.ar       1          -0.1682
     34 H3          5.7670    -6.0724    93.3549 H          1           0.1302
     35 H4          7.1622    -5.3722    94.2102 H          1           0.1304
     36 H5          6.8388    -7.1194    94.3158 H          1           0.1216
     37 H6          4.9584    -7.9133    95.6319 H          1           0.1284
     38 H7          3.8301    -6.7283    96.3332 H          1           0.1500
     39 H8          4.3419    -7.2110    93.3597 H          1           0.1224
     40 H9          2.8579    -7.6158    94.2657 H          1           0.1009
     41 H10         4.8441    -4.5054    93.1974 H          1           0.1223
     42 H11         3.6229    -3.4949    94.0184 H          1           0.1012
     43 H12         4.2557    -4.4270    96.1941 H          1           0.1497
     44 H13         5.7170    -3.8124    95.3840 H          1           0.1294
     45 H14         3.2303    -5.7131    91.4562 H          1           0.1442
     46 H15         3.2173    -5.1311    88.7660 H          1           0.4163
     47 H16         2.8456    -7.7134    86.4449 H          1           0.4117
     48 H17         5.0548    -6.5520    88.6711 H          1           0.1323
     49 H18         6.9524    -5.0798    88.2867 H          1           0.1345
     50 H19         8.1382    -3.4689    86.8306 H          1           0.1315
     51 H20         8.2422    -2.2151    84.7455 H          1           0.1296
     52 H21         6.4677    -2.4257    83.0583 H          1           0.1295
     53 H22         4.5608    -3.8951    83.4292 H          1           0.1297
     54 H23         3.3742    -5.5182    84.8785 H          1           0.1322
     55 H24        -0.1270    -5.2479    88.8515 H          1           0.1733
     56 H25        -1.6019    -4.8603    90.7459 H          1           0.1687
     57 H26        -1.0576    -4.6905    95.3203 H          1           0.2178
     58 H27         1.3143    -5.1094    95.8013 H          1           0.1881
@<TRIPOS>BOND
     1    1    2 1
     2    1   34 1
     3    1   35 1
     4    1   36 1
     5    2    3 1
     6    2    8 1
     7    2    4 1
     8    4    5 1
     9    4   37 1
    10    4   38 1
    11    5    6 1
    12    5   39 1
    13    5   40 1
    14    6    7 1
    15    6    9 1
    16    7    8 1
    17    7   41 1
    18    7   42 1
    19    8   43 1
    20    8   44 1
    21    9   33 ar
    22    9   10 ar
    23   10   29 ar
    24   10   11 ar
    25   11   12 ar
    26   11   45 1
    27   12   13 1
    28   12   27 ar
    29   13   14 am
    30   13   46 1
    31   14   15 2
    32   14   16 am
    33   16   17 1
    34   16   47 1
    35   17   26 ar
    36   17   18 ar
    37   18   19 ar
    38   18   48 1
    39   19   20 ar
    40   19   49 1
    41   20   25 ar
    42   20   21 ar
    43   21   22 ar
    44   21   50 1
    45   22   23 ar
    46   22   51 1
    47   23   24 ar
    48   23   52 1
    49   24   25 ar
    50   24   53 1
    51   25   26 ar
    52   26   54 1
    53   27   28 ar
    54   27   55 1
    55   28   29 ar
    56   28   56 1
    57   29   30 ar
    58   30   31 1
    59   30   32 ar
    60   32   33 ar
    61   32   57 1
    62   33   58 1
##########                 Name:              T540766
##########          Protonation:                   33
##########               SMILES:   H]([C@@H](O2)n3cnc\4c3[nH]c([nH+]/c4=N\CC(c5ccccc5)c6ccccc6)NCCNc7ccccn7)O)O
##########            Long Name:   amino]-3H-purin-1-ium-9-yl]-5-(3-ethylisoxazol-5-yl)tetrahydrofuran-3,4-diol
##########          FlexRecCode: 1
##########               Number:                  369
##########   Ligand Source File: /raidb/db2/rgc/tcams/tcams-0002012.db2.gz
##########           GlobalRank: 267
##########                 Rank:                    1
##########               Setnum:                  146
##########             Matchnum:                 1693
##########                Cloud:                    1
##########        Electrostatic:           -47.544197
##########        Van der Waals:           -26.639753
##########  Ligand Polar Desolv:            11.034369
########## Ligand Apolar Desolv:            -2.277220
##########      Internal Energy:             0.000000
##########      Receptor Energy: 0.0
########## Receptor Desolvation:             0.000000
########## Receptor Hydrophobic:             0.000000
##########         Total Energy: -65.43
##########        Ligand Charge:             1.000000
##########            Arbitrary:    +999.9990
##########     heavy atom count:   48
##########           pose count:    1
##########        Ligand Energy:             0.000000
# num electro vdwattr vdwrepu polsolv apolsol rdesolv rhydroe totalscore fullpol fullapo
#   1    3.42   -1.00    0.33   -0.43   -0.08    0.00    0.00       2.24   -1.10   -0.19
#   2    0.82   -1.27    0.62   -0.21   -0.11    0.00    0.00      -0.14   -0.53   -0.27
#   3   -0.96   -1.84    1.65    0.19   -0.20    0.00    0.00      -1.15    0.68   -0.72
#   4    1.09   -0.95    0.32   -0.38    0.27    0.00    0.00       0.35   -1.75    1.24
#   5    0.43   -0.42    0.03   -0.12   -0.03    0.00    0.00      -0.11   -0.71   -0.18
#   6   -0.70   -0.69    0.07    0.15   -0.06    0.00    0.00      -1.23    0.71   -0.28
#   7    4.11   -1.31    0.42   -0.81   -0.13    0.00    0.00       2.28   -2.99   -0.49
#   8   -2.26   -0.42    0.03    0.37   -0.03    0.00    0.00      -2.31    1.79   -0.13
#   9    5.98   -0.42    0.02   -0.98    0.23    0.00    0.00       4.83   -5.65    1.34
#  10   -3.13   -0.21    0.01    0.73   -0.04    0.00    0.00      -2.65    5.70   -0.33
#  11   -0.74   -0.42    0.05    0.36   -0.04    0.00    0.00      -0.79    1.87   -0.19
#  12    9.70   -0.62    0.04   -2.84    0.26    0.00    0.00       6.54  -11.51    1.06
#  13   -0.48   -0.40    0.04    0.18   -0.03    0.00    0.00      -0.68    0.99   -0.16
#  14    6.55   -0.63    0.06   -2.09    0.24    0.00    0.00       4.13   -9.51    1.07
#  15    5.22   -0.28    0.01   -0.98    0.15    0.00    0.00       4.13   -8.02    1.27
#  16   -1.87   -0.25    0.01    0.35   -0.29    0.00    0.00      -2.05    3.28   -2.71
#  17    3.02   -0.24    0.01   -0.56    0.21    0.00    0.00       2.44   -5.81    2.16
#  18   -0.53   -0.32    0.01   -0.12   -0.11    0.00    0.00      -1.07   -0.84   -0.81
#  19   -3.87   -0.43    0.02    1.02   -0.34    0.00    0.00      -3.60    6.13   -2.05
#  20   14.98   -1.08    0.20   -3.61    0.26    0.00    0.00      10.75  -14.49    1.05
#  21  -21.10   -1.46    0.43    6.44   -1.46    0.00    0.00     -17.16   21.10   -4.80
#  22   27.41   -4.18    4.21   -8.02    0.72    0.00    0.00      20.14  -19.10    1.72
#  23   -2.96   -2.05    0.86    1.02   -0.18    0.00    0.00      -3.32    2.11   -0.38
#  24   -3.68   -1.20    0.23    1.13   -0.16    0.00    0.00      -3.68    2.64   -0.37
#  25   10.56   -2.03    0.55   -5.34    0.71    0.00    0.00       4.46  -12.88    1.72
#  26   -1.75   -1.27    0.24    1.31   -0.62    0.00    0.00      -2.09    4.42   -2.09
#  27    0.81   -1.26    0.19   -1.08   -0.15    0.00    0.00      -1.50   -3.11   -0.44
#  28    0.08   -0.68    0.04   -0.16   -0.12    0.00    0.00      -0.83   -0.63   -0.48
#  29    0.52   -0.38    0.02   -0.28   -0.06    0.00    0.00      -0.18   -2.11   -0.48
#  30   -0.46   -0.45    0.06    0.08   -0.14    0.00    0.00      -0.91    0.61   -0.98
#  31    2.89   -0.77    0.12   -0.90    0.42    0.00    0.00       1.76   -4.38    2.04
#  32   12.20   -0.74    0.06   -3.68    0.24    0.00    0.00       8.09  -14.38    0.95
#  33   -9.95   -0.01    0.00    2.03    0.04    0.00    0.00      -7.88   12.21    0.27
#  34   -4.97   -0.38    0.01    1.18   -0.32    0.00    0.00      -4.48    7.86   -2.12
#  35    2.37   -0.27    0.00   -0.78    0.31    0.00    0.00       1.63   -7.66    3.07
#  36   -0.10   -0.27    0.01    0.13   -0.06    0.00    0.00      -0.30    0.78   -0.39
#  37   -0.01   -0.18    0.00    0.03   -0.02    0.00    0.00      -0.18    0.23   -0.16
#  38    0.10   -0.22    0.01   -0.04   -0.03    0.00    0.00      -0.19   -0.46   -0.31
#  39    0.12   -0.11    0.00   -0.04   -0.02    0.00    0.00      -0.06   -0.90   -0.45
#  40    0.12   -0.12    0.00   -0.04   -0.02    0.00    0.00      -0.06   -0.75   -0.47
#  41    0.15   -0.25    0.00   -0.07   -0.04    0.00    0.00      -0.21   -0.74   -0.47
#  42    0.19   -0.49    0.03   -0.15   -0.09    0.00    0.00      -0.52   -0.81   -0.47
#  43    0.19   -0.55    0.08   -0.15   -0.06    0.00    0.00      -0.49   -0.90   -0.39
#  44    0.12   -0.49    0.03   -0.14   -0.06    0.00    0.00      -0.55   -0.83   -0.34
#  45    0.06   -0.31    0.01   -0.17   -0.05    0.00    0.00      -0.46   -1.26   -0.39
#  46    0.06   -0.38    0.01   -0.19   -0.07    0.00    0.00      -0.56   -1.25   -0.47
#  47    0.14   -0.87    0.07   -0.38   -0.14    0.00    0.00      -1.17   -1.24   -0.47
#  48    0.28   -2.61    1.91   -0.48   -0.18    0.00    0.00      -1.08   -1.29   -0.47
#  49    0.27   -1.92    1.16   -0.37   -0.13    0.00    0.00      -0.98   -1.30   -0.45
#  50   -1.55   -0.30    0.05    0.01   -0.08    0.00    0.00      -1.86    0.04   -0.28
#  51   -1.63   -0.58    0.85    0.18   -0.07    0.00    0.00      -1.24    0.76   -0.28
#  52   -1.55   -0.25    0.04    0.09   -0.07    0.00    0.00      -1.74    0.36   -0.28
#  53   -1.09   -0.50    0.25    0.60   -0.09    0.00    0.00      -0.83    1.79   -0.28
#  54   -1.63   -0.55    0.25    0.32   -0.10    0.00    0.00      -1.70    0.89   -0.28
#  55   -3.82   -0.26    0.04    0.84   -0.07    0.00    0.00      -3.27    3.55   -0.28
#  56   -4.36   -0.27    0.08    0.56   -0.04    0.00    0.00      -4.03    2.95   -0.19
#  57   -0.72   -0.05    0.00    0.31   -0.02    0.00    0.00      -0.47    5.56   -0.28
#  58   -0.10   -0.30    0.13    0.57   -0.05    0.00    0.00       0.26    3.34   -0.28
#  59  -11.70   -0.02    0.00    1.76    0.24    0.00    0.00      -9.72    9.23    1.24
#  60   -0.39   -0.14    0.02    0.16   -0.03    0.00    0.00      -0.37    1.36   -0.26
#  61   -7.51   -0.01    0.00    0.85    0.13    0.00    0.00      -6.54    8.03    1.22
#  62   -1.06   -0.05    0.00    0.18   -0.01    0.00    0.00      -0.94    3.90   -0.18
#  63  -14.33   -0.02    0.00    3.17    0.13    0.00    0.00     -11.06   14.80    0.59
#  64  -24.22   -0.17    0.03    7.73    0.27    0.00    0.00     -16.36   16.00    0.56
#  65   -4.94   -1.37    1.69    2.15   -0.15    0.00    0.00      -2.62    3.96   -0.27
#  66   -3.92   -0.63    0.29    1.76   -0.12    0.00    0.00      -2.63    3.92   -0.27
#  67   -3.09   -0.67    0.44    1.12   -0.11    0.00    0.00      -2.31    2.72   -0.27
#  68   -1.95   -0.23    0.03    0.63   -0.06    0.00    0.00      -1.58    2.73   -0.27
#  69   -7.62   -0.05    0.00    2.81    0.22    0.00    0.00      -4.65    7.43    0.58
#  70   -0.41   -0.39    0.10    1.23   -0.08    0.00    0.00       0.44    3.57   -0.23
#  71   -0.28   -0.14    0.01    0.32   -0.04    0.00    0.00      -0.13    2.12   -0.28
#  72   -0.25   -0.04    0.00    0.05   -0.01    0.00    0.00      -0.25    1.18   -0.28
#  73   -0.47   -0.04    0.00    0.06   -0.01    0.00    0.00      -0.47    1.10   -0.28
#  74   -0.49   -0.11    0.00    0.18   -0.03    0.00    0.00      -0.45    1.28   -0.21
#  75   -0.33   -0.12    0.00    0.27   -0.02    0.00    0.00      -0.20    2.32   -0.19
#  76   -0.08   -0.04    0.00    0.05   -0.01    0.00    0.00      -0.07    1.48   -0.26
#  77   -0.11   -0.02    0.00    0.03   -0.01    0.00    0.00      -0.11    1.18   -0.28
#  78   -0.10   -0.01    0.00    0.01   -0.01    0.00    0.00      -0.10    0.74   -0.28
#  79   -0.14   -0.06    0.00    0.03   -0.01    0.00    0.00      -0.18    0.59   -0.28
#  80   -0.22   -0.17    0.01    0.15   -0.05    0.00    0.00      -0.28    0.81   -0.28
#  81   -0.24   -0.31    0.27    0.24   -0.03    0.00    0.00      -0.08    1.42   -0.17
#  82   -0.02   -0.04    0.00    0.06   -0.01    0.00    0.00       0.00    1.71   -0.18
#  83   -0.02   -0.04    0.00    0.05   -0.01    0.00    0.00      -0.03    1.22   -0.28
#  84   -0.15   -0.19    0.02    0.25   -0.07    0.00    0.00      -0.14    0.97   -0.28
#  85   -0.43   -1.42    3.17    0.63   -0.13    0.00    0.00       1.81    1.30   -0.28
#  86   -1.08   -0.67    0.61    0.57   -0.08    0.00    0.00      -0.65    2.00   -0.28

@<TRIPOS>MOLECULE
          T540766        33
   86    92     0     0     0



@<TRIPOS>ATOM
      1 C1         -1.4210    -4.7256    92.8749 C.3        1          -0.1531
      2 C2         -0.4308    -4.0233    91.9436 C.3        1          -0.0588
      3 C3          0.6876    -4.9706    91.5931 C.2        1           0.1106
      4 N1          0.7081    -5.7884    90.5790 N.2        1          -0.2956
      5 O1          1.9355    -6.4942    90.6131 O.3        1          -0.0661
      6 C4          2.6294    -6.0628    91.6775 C.2        1           0.0458
      7 C5          1.8940    -5.1217    92.3001 C.2        1          -0.2484
      8 C6          3.9940    -6.5434    92.0995 C.3        1           0.1052
      9 O2          4.7138    -7.0260    90.9731 O.3        1          -0.3127
     10 C7          5.1159    -8.3859    91.1805 C.3        1           0.2871
     11 C8          5.1451    -8.5125    92.7193 C.3        1           0.0792
     12 O3          6.3025    -7.8836    93.2732 O.3        1          -0.5390
     13 C9          3.8633    -7.7278    93.0551 C.3        1           0.0456
     14 O4          3.8666    -7.2940    94.4166 O.3        1          -0.5304
     15 N2          6.4466    -8.6241    90.6161 N.pl3      1          -0.4333
     16 C10         7.1318    -9.8027    90.6354 C.2        1           0.2490
     17 N3          8.2809    -9.6466    90.0412 N.2        1          -0.3983
     18 C11         8.3893    -8.3686    89.6142 C.2        1           0.0450
     19 C12         7.2232    -7.7101    89.9709 C.2        1           0.2267
     20 N4          7.0816    -6.3822    89.6412 N.pl3      1          -0.5634
     21 C13         8.0684    -5.7243    88.9727 C.cat      1           0.7447
     22 N5          7.8859    -4.4015    88.6640 N.pl3      1          -0.6762
     23 C14         8.6801    -3.7812    87.6006 C.3        1           0.0762
     24 C15         8.4202    -4.5083    86.2797 C.3        1           0.1250
     25 N6          6.9973    -4.4163    85.9436 N.pl3      1          -0.7308
     26 C16         6.2399    -5.5735    85.8039 C.ar       1           0.3949
     27 C17         5.0447    -5.5336    85.0928 C.ar       1          -0.2381
     28 C18         4.3011    -6.6923    84.9616 C.ar       1          -0.0325
     29 C19         4.7794    -7.8567    85.5485 C.ar       1          -0.2196
     30 C20         5.9734    -7.8241    86.2400 C.ar       1           0.1516
     31 N7          6.6648    -6.7049    86.3445 N.ar       1          -0.5372
     32 N8          9.1880    -6.3075    88.6127 N.pl3      1          -0.5981
     33 H1          9.8604    -5.7943    88.1380 H          1           0.4475
     34 C21         9.4244    -7.6063    88.8965 C.2        1           0.4047
     35 N9         10.5515    -8.1823    88.5281 N.2        1          -0.4462
     36 C22        11.5145    -7.4472    87.7044 C.3        1           0.0422
     37 C23        12.7265    -8.3369    87.4203 C.3        1           0.0070
     38 C24        12.3981    -9.2907    86.3009 C.ar       1          -0.0673
     39 C25        11.8430   -10.5245    86.5846 C.ar       1          -0.1058
     40 C26        11.5418   -11.3995    85.5578 C.ar       1          -0.1138
     41 C27        11.7951   -11.0406    84.2471 C.ar       1          -0.1157
     42 C28        12.3493    -9.8064    83.9633 C.ar       1          -0.1145
     43 C29        12.6466    -8.9297    84.9898 C.ar       1          -0.1105
     44 C30        13.8979    -7.4772    87.0205 C.ar       1          -0.0865
     45 C31        15.1867    -7.8923    87.2991 C.ar       1          -0.1150
     46 C32        16.2613    -7.1039    86.9324 C.ar       1          -0.1127
     47 C33        16.0471    -5.9005    86.2867 C.ar       1          -0.1133
     48 C34        14.7583    -5.4858    86.0074 C.ar       1          -0.1136
     49 C35        13.6839    -6.2763    86.3702 C.ar       1          -0.1129
     50 H2         -2.2300    -4.0405    93.1284 H          1           0.0638
     51 H3         -1.8312    -5.6028    92.3741 H          1           0.0734
     52 H4         -0.9073    -5.0341    93.7853 H          1           0.0596
     53 H5         -0.9446    -3.7150    91.0330 H          1           0.0957
     54 H6         -0.0207    -3.1462    92.4442 H          1           0.0961
     55 H7          2.1800    -4.5791    93.1891 H          1           0.1672
     56 H8          4.5455    -5.7337    92.5773 H          1           0.1259
     57 H9          4.3867    -9.0730    90.7512 H          1           0.1568
     58 H10         5.0719    -9.5533    93.0348 H          1           0.1214
     59 H11         6.3661    -6.9379    93.0814 H          1           0.4034
     60 H12         2.9729    -8.3158    92.8327 H          1           0.1000
     61 H13         4.6700    -6.8236    94.6776 H          1           0.3942
     62 H14         6.7771   -10.7233    91.0749 H          1           0.2256
     63 H15         6.2706    -5.9102    89.8871 H          1           0.4441
     64 H16         7.2310    -3.8759    89.1496 H          1           0.4416
     65 H17         8.3975    -2.7332    87.5003 H          1           0.1056
     66 H18         9.7389    -3.8497    87.8508 H          1           0.1054
     67 H19         9.0111    -4.0467    85.4885 H          1           0.0827
     68 H20         8.7028    -5.5561    86.3802 H          1           0.0826
     69 H21         6.5835    -3.5479    85.8185 H          1           0.4086
     70 H22         4.7020    -4.6103    84.6493 H          1           0.1276
     71 H23         3.3693    -6.6917    84.4155 H          1           0.1365
     72 H24         4.2224    -8.7781    85.4649 H          1           0.1378
     73 H25         6.3487    -8.7272    86.6982 H          1           0.1614
     74 H26        11.0446    -7.1621    86.7631 H          1           0.1141
     75 H27        11.8376    -6.5516    88.2351 H          1           0.0350
     76 H28        12.9801    -8.9023    88.3170 H          1           0.0862
     77 H29        11.6450   -10.8050    87.6086 H          1           0.1154
     78 H30        11.1088   -12.3639    85.7795 H          1           0.1224
     79 H31        11.5604   -11.7245    83.4449 H          1           0.1227
     80 H32        12.5475    -9.5261    82.9393 H          1           0.1224
     81 H33        13.0762    -7.9640    84.7678 H          1           0.1168
     82 H34        15.3541    -8.8326    87.8035 H          1           0.1225
     83 H35        17.2682    -7.4279    87.1507 H          1           0.1260
     84 H36        16.8866    -5.2842    86.0009 H          1           0.1257
     85 H37        14.5910    -4.5454    85.5032 H          1           0.1253
     86 H38        12.6772    -5.9541    86.1485 H          1           0.1201
@<TRIPOS>BOND
     1    1    2 1
     2    1   50 1
     3    1   51 1
     4    1   52 1
     5    2    3 1
     6    2   53 1
     7    2   54 1
     8    3    7 1
     9    3    4 2
    10    4    5 1
    11    5    6 1
    12    6    7 2
    13    6    8 1
    14    7   55 1
    15    8   13 1
    16    8    9 1
    17    8   56 1
    18    9   10 1
    19   10   11 1
    20   10   15 1
    21   10   57 1
    22   11   12 1
    23   11   13 1
    24   11   58 1
    25   12   59 1
    26   13   14 1
    27   13   60 1
    28   14   61 1
    29   15   19 1
    30   15   16 1
    31   16   17 2
    32   16   62 1
    33   17   18 1
    34   18   34 1
    35   18   19 2
    36   19   20 1
    37   20   21 1
    38   20   63 1
    39   21   22 1
    40   21   32 2
    41   22   23 1
    42   22   64 1
    43   23   24 1
    44   23   65 1
    45   23   66 1
    46   24   25 1
    47   24   67 1
    48   24   68 1
    49   25   26 1
    50   25   69 1
    51   26   31 ar
    52   26   27 ar
    53   27   28 ar
    54   27   70 1
    55   28   29 ar
    56   28   71 1
    57   29   30 ar
    58   29   72 1
    59   30   31 ar
    60   30   73 1
    61   32   33 1
    62   32   34 1
    63   34   35 2
    64   35   36 1
    65   36   37 1
    66   36   74 1
    67   36   75 1
    68   37   38 1
    69   37   44 1
    70   37   76 1
    71   38   43 ar
    72   38   39 ar
    73   39   40 ar
    74   39   77 1
    75   40   41 ar
    76   40   78 1
    77   41   42 ar
    78   41   79 1
    79   42   43 ar
    80   42   80 1
    81   43   81 1
    82   44   49 ar
    83   44   45 ar
    84   45   46 ar
    85   45   82 1
    86   46   47 ar
    87   46   83 1
    88   47   48 ar
    89   47   84 1
    90   48   49 ar
    91   48   85 1
    92   49   86 1
##########                 Name:              T536315
##########          Protonation:                   46
##########               SMILES:   c1ccc(cc1)c2cccc(c2)OCCCNc3[nH+]c(nc(n3)N4CC[NH2+]CC4)NCCc5ccc(cc5)O
##########            Long Name:   pylamino]-4-piperazin-4-ium-1-yl-1,3,5-triazin-1-ium-2-yl]amino]ethyl]phenol
##########          FlexRecCode: 1
##########               Number:                   94
##########   Ligand Source File: /raidb/db2/rgc/tcams/tcams-0001536.db2.gz
##########           GlobalRank: 268
##########                 Rank:                    1
##########               Setnum:                  384
##########             Matchnum:                 4629
##########                Cloud:                    1
##########        Electrostatic:           -54.701424
##########        Van der Waals:           -25.540457
##########  Ligand Polar Desolv:            18.231964
########## Ligand Apolar Desolv:            -3.401186
##########      Internal Energy:             0.000000
##########      Receptor Energy: 0.0
########## Receptor Desolvation:             0.000000
########## Receptor Hydrophobic:             0.000000
##########         Total Energy: -65.41
##########        Ligand Charge:             2.000000
##########            Arbitrary:    +999.9990
##########     heavy atom count:   39
##########           pose count:    1
##########        Ligand Energy:             0.000000
# num electro vdwattr vdwrepu polsolv apolsol rdesolv rhydroe totalscore fullpol fullapo
#   1    6.22   -1.48    0.29   -2.60    0.48    0.00    0.00       2.92   -6.40    1.19
#   2   -1.23   -1.01    0.18    0.14   -0.09    0.00    0.00      -2.03    0.45   -0.31
#   3    3.18   -2.48    2.50   -1.11   -0.17    0.00    0.00       1.92   -3.08   -0.46
#   4    1.40   -1.87    0.70   -0.65   -0.15    0.00    0.00      -0.57   -2.01   -0.45
#   5    0.30   -0.89    0.17   -0.41   -0.09    0.00    0.00      -0.91   -1.71   -0.36
#   6    0.22   -0.90    0.36   -0.64   -0.06    0.00    0.00      -1.02   -2.51   -0.23
#   7   -0.22   -1.02    1.22    0.61   -0.07    0.00    0.00       0.51    3.36   -0.37
#   8    1.14   -0.23    0.01   -2.25    0.17    0.00    0.00      -1.15  -22.70    1.74
#   9   -1.66   -0.15    0.00    1.75   -0.35    0.00    0.00      -0.40   24.00   -4.81
#  10    3.54   -0.21    0.01   -1.96    0.17    0.00    0.00       1.54  -21.61    1.84
#  11   -6.18   -0.19    0.00    1.57   -0.33    0.00    0.00      -5.12   22.33   -4.68
#  12    4.73   -0.19    0.00   -1.67    0.14    0.00    0.00       3.02  -21.47    1.84
#  13   -3.11   -0.16    0.00    1.56   -0.32    0.00    0.00      -2.02   23.74   -4.81
#  14    2.56   -0.27    0.01   -2.36    0.18    0.00    0.00       0.13  -22.27    1.73
#  15   -0.54   -0.42    0.09    0.56   -0.06    0.00    0.00      -0.37    3.39   -0.38
#  16    1.12   -0.53    0.04   -0.92   -0.06    0.00    0.00      -0.34   -3.46   -0.23
#  17   -0.52   -0.68    0.06    0.19   -0.03    0.00    0.00      -0.98    0.60   -0.09
#  18    1.16   -1.06    0.19   -1.74    0.26    0.00    0.00      -1.21   -6.02    0.89
#  19   -0.62   -1.29    0.22    0.59   -0.10    0.00    0.00      -1.19    1.89   -0.31
#  20    1.17   -1.10    0.18   -0.60   -0.13    0.00    0.00      -0.48   -2.06   -0.44
#  21   -0.08   -1.03    0.07   -0.17   -0.14    0.00    0.00      -1.35   -0.48   -0.41
#  22    1.73   -1.41    0.14   -0.87   -0.19    0.00    0.00      -0.60   -2.03   -0.44
#  23    0.71   -1.70    0.40   -0.51   -0.19    0.00    0.00      -1.30   -1.25   -0.47
#  24    1.33   -1.31    0.14   -1.16   -0.15    0.00    0.00      -1.16   -3.18   -0.42
#  25    1.26   -1.03    0.08   -0.21   -0.15    0.00    0.00      -0.06   -0.57   -0.41
#  26    3.31   -1.72    0.32   -0.48   -0.20    0.00    0.00       1.23   -1.08   -0.44
#  27    4.68   -2.82    1.05   -0.61   -0.25    0.00    0.00       2.05   -1.13   -0.47
#  28    3.63   -2.70    0.80   -0.57   -0.23    0.00    0.00       0.93   -1.16   -0.47
#  29    3.02   -1.64    0.26   -0.46   -0.20    0.00    0.00       0.98   -1.09   -0.47
#  30    1.95   -1.11    0.08   -0.38   -0.16    0.00    0.00       0.37   -1.05   -0.44
#  31    1.30   -0.10    0.00   -0.99    0.04    0.00    0.00       0.25  -22.17    0.99
#  32   -0.41    0.00    0.00    0.37    0.01    0.00    0.00      -0.03   17.50    0.36
#  33    7.68   -0.30    0.01   -2.55    0.21    0.00    0.00       5.05  -20.61    1.70
#  34   -1.67   -0.30    0.02    0.47   -0.08    0.00    0.00      -1.56    2.88   -0.48
#  35    0.81   -1.83    1.88    0.11   -0.14    0.00    0.00       0.84    0.39   -0.48
#  36   20.24   -3.33    3.88   -8.03    0.31    0.00    0.00      13.08  -22.73    0.89
#  37  -10.73   -0.03    0.00    6.32    0.16    0.00    0.00      -4.28   22.48    0.56
#  38  -29.52   -0.32    0.15   10.67    0.26    0.00    0.00     -18.75   23.28    0.57
#  39    0.59   -1.29    0.55    0.11   -0.15    0.00    0.00      -0.20    0.36   -0.48
#  40   -1.11   -0.33    0.01    0.53   -0.09    0.00    0.00      -0.98    2.90   -0.48
#  41    0.17   -0.36    0.02   -0.28   -0.06    0.00    0.00      -0.51   -1.98   -0.45
#  42    0.26   -0.42    0.01   -0.50   -0.08    0.00    0.00      -0.72   -3.08   -0.46
#  43   -7.78   -0.04    0.00    3.00    0.55    0.00    0.00      -4.28    6.65    1.22
#  44   -5.09   -1.08    2.40    0.60   -0.11    0.00    0.00      -3.28    1.54   -0.28
#  45   -3.50   -0.60    0.28    1.57   -0.10    0.00    0.00      -2.36    4.20   -0.28
#  46   -0.33   -0.75    0.75    1.16   -0.10    0.00    0.00       0.72    3.37   -0.28
#  47   -0.20   -0.12    0.01    0.40   -0.04    0.00    0.00       0.05    3.19   -0.28
#  48   -0.28   -0.52    0.91    0.72   -0.05    0.00    0.00       0.78    4.31   -0.27
#  49   -0.23   -0.44    0.64    0.72   -0.04    0.00    0.00       0.66    4.55   -0.27
#  50   -0.62    0.00    0.00    0.44    0.02    0.00    0.00      -0.17   15.84    0.58
#  51   -1.22    0.00    0.00    0.55    0.02    0.00    0.00      -0.65   14.93    0.58
#  52   -0.58   -0.43    0.62    0.77   -0.04    0.00    0.00       0.33    4.84   -0.27
#  53   -0.70   -0.10    0.01    0.46   -0.03    0.00    0.00      -0.35    5.06   -0.28
#  54   -0.78   -0.14    0.01    0.34   -0.04    0.00    0.00      -0.62    2.26   -0.28
#  55   -0.93   -0.26    0.05    0.45   -0.06    0.00    0.00      -0.75    2.13   -0.28
#  56   -0.77   -0.33    0.07    0.72   -0.07    0.00    0.00      -0.39    2.53   -0.26
#  57   -0.59   -0.22    0.04    0.48   -0.05    0.00    0.00      -0.33    2.62   -0.26
#  58   -1.26   -0.15    0.01    0.18   -0.03    0.00    0.00      -1.25    1.38   -0.22
#  59   -1.93   -0.32    0.03    0.49   -0.08    0.00    0.00      -1.81    1.34   -0.22
#  60   -1.49   -0.47    0.27    0.86   -0.09    0.00    0.00      -0.91    2.80   -0.28
#  61   -0.81   -0.22    0.01    1.04   -0.05    0.00    0.00      -0.03    4.44   -0.22
#  62   -4.07   -0.46    0.12    0.70   -0.10    0.00    0.00      -3.80    1.60   -0.22
#  63   -6.10   -0.97    0.68    0.90   -0.16    0.00    0.00      -5.65    1.58   -0.28
#  64   -4.61   -1.00    0.92    0.68   -0.15    0.00    0.00      -4.16    1.30   -0.28
#  65   -3.32   -0.31    0.03    0.43   -0.09    0.00    0.00      -3.25    1.31   -0.28
#  66   -1.51   -0.25    0.02    0.35   -0.06    0.00    0.00      -1.45    1.37   -0.22
#  67   -1.51   -0.05    0.00    0.25   -0.01    0.00    0.00      -1.32    5.18   -0.28
#  68   -2.38   -0.07    0.00    0.26   -0.02    0.00    0.00      -2.21    3.90   -0.24
#  69   -6.97   -0.74    1.18    1.96   -0.07    0.00    0.00      -4.64    8.27   -0.28
#  70   -5.80   -0.84    1.11    1.76   -0.09    0.00    0.00      -3.86    5.67   -0.28
#  71   -4.01   -0.86    1.65    2.47   -0.08    0.00    0.00      -0.84    8.43   -0.28
#  72   -4.61   -0.37    0.10    1.61   -0.08    0.00    0.00      -3.35    5.70   -0.28
#  73   -1.56   -0.09    0.00    0.38   -0.02    0.00    0.00      -1.29    4.12   -0.24
#  74   -0.64   -0.08    0.00    0.37   -0.02    0.00    0.00      -0.36    5.22   -0.28
#  75   -0.18   -0.03    0.00    0.16   -0.01    0.00    0.00      -0.06    4.40   -0.28
#  76   -0.12   -0.06    0.00    0.09   -0.02    0.00    0.00      -0.10    1.62   -0.28

@<TRIPOS>MOLECULE
          T536315        46
   76    80     0     0     0



@<TRIPOS>ATOM
      1 O1         12.9703    -5.5923    89.1160 O.3        1          -0.4954
      2 C1         12.4643    -6.2496    88.0395 C.ar       1           0.1248
      3 C2         11.5983    -5.5993    87.1723 C.ar       1          -0.1427
      4 C3         11.0857    -6.2695    86.0784 C.ar       1          -0.0926
      5 C4         11.4347    -7.5875    85.8479 C.ar       1          -0.1187
      6 C5         10.8737    -8.3163    84.6542 C.3        1          -0.0830
      7 C6          9.5614    -8.9996    85.0440 C.3        1           0.0860
      8 N1          9.8109    -9.9548    86.1263 N.pl3      1          -0.6470
      9 C7          9.1690    -9.8067    87.3391 C.ar       1           0.6997
     10 N2          8.3200    -8.8000    87.5234 N.ar       1          -0.6227
     11 C8          7.7019    -8.6575    88.6913 C.ar       1           0.6929
     12 N3          7.9325    -9.5213    89.6753 N.ar       1          -0.6224
     13 C9          8.7811   -10.5276    89.4912 C.ar       1           0.7017
     14 N4          9.0201   -11.4244    90.5125 N.pl3      1          -0.6471
     15 C10         8.7131   -11.0569    91.8970 C.3        1           0.0874
     16 C11         8.3410   -12.3128    92.6876 C.3        1          -0.1339
     17 C12         8.0203   -11.9289    94.1336 C.3        1           0.0633
     18 O2          6.9239   -11.0129    94.1513 O.3        1          -0.3120
     19 C13         6.8889   -10.1120    95.1681 C.ar       1           0.1252
     20 C14         6.3020    -8.8718    94.9749 C.ar       1          -0.1415
     21 C15         6.2682    -7.9515    96.0193 C.ar       1           0.0063
     22 C16         6.8248    -8.2831    97.2533 C.ar       1          -0.1415
     23 C17         7.4075    -9.5209    97.4373 C.ar       1          -0.0747
     24 C18         7.4358   -10.4364    96.4017 C.ar       1          -0.2113
     25 C19         5.6416    -6.6213    95.8189 C.ar       1          -0.0617
     26 C20         6.4061    -5.5503    95.3607 C.ar       1          -0.1057
     27 C21         5.8182    -4.3153    95.1762 C.ar       1          -0.1183
     28 C22         4.4728    -4.1398    95.4453 C.ar       1          -0.1083
     29 C23         3.7094    -5.1995    95.9008 C.ar       1          -0.1167
     30 C24         4.2856    -6.4403    96.0829 C.ar       1          -0.1033
     31 N5          9.3953   -10.6735    88.3211 N.ar       1          -0.6324
     32 H1         10.0114   -11.4102    88.1853 H          1           0.4422
     33 N6          6.8211    -7.6124    88.8828 N.pl3      1          -0.5666
     34 C25         6.1303    -7.4312    90.1688 C.3        1           0.0913
     35 C26         6.3164    -5.9788    90.6198 C.3        1          -0.0216
     36 N7          5.8625    -5.0747    89.5556 N.4        1          -0.5090
     37 H2          4.9075    -5.2938    89.3145 H          1           0.4336
     38 H3          5.9158    -4.1210    89.8805 H          1           0.4431
     39 C27         6.7131    -5.2321    88.3691 C.3        1          -0.0214
     40 C28         6.5510    -6.6444    87.8084 C.3        1           0.0908
     41 C29        12.2977    -8.2376    86.7105 C.ar       1          -0.0928
     42 C30        12.8173    -7.5702    87.8027 C.ar       1          -0.1429
     43 H4         12.6667    -4.6777    89.1968 H          1           0.3982
     44 H5         11.3250    -4.5701    87.3524 H          1           0.1357
     45 H6         10.4116    -5.7638    85.4032 H          1           0.1284
     46 H7         10.6879    -7.6056    83.8488 H          1           0.0941
     47 H8         11.5885    -9.0674    84.3180 H          1           0.0945
     48 H9          8.8465    -8.2483    85.3800 H          1           0.0937
     49 H10         9.1556    -9.5266    84.1805 H          1           0.0934
     50 H11        10.4274   -10.6914    85.9906 H          1           0.4474
     51 H12         9.3915   -12.2982    90.3137 H          1           0.4485
     52 H13         9.5861   -10.5875    92.3505 H          1           0.0958
     53 H14         7.8767   -10.3580    91.9105 H          1           0.0957
     54 H15         7.4679   -12.7822    92.2342 H          1           0.0977
     55 H16         9.1773   -13.0116    92.6742 H          1           0.0981
     56 H17         7.7552   -12.8238    94.6967 H          1           0.0692
     57 H18         8.8934   -11.4596    94.5870 H          1           0.0690
     58 H19         5.8723    -8.6195    94.0167 H          1           0.1354
     59 H20         6.8007    -7.5716    98.0654 H          1           0.1321
     60 H21         7.8388    -9.7763    98.3938 H          1           0.1301
     61 H22         7.8886   -11.4053    96.5518 H          1           0.1235
     62 H23         7.4567    -5.6862    95.1507 H          1           0.1245
     63 H24         6.4098    -3.4843    94.8214 H          1           0.1273
     64 H25         4.0169    -3.1716    95.2995 H          1           0.1274
     65 H26         2.6595    -5.0567    96.1100 H          1           0.1288
     66 H27         3.6875    -7.2684    96.4337 H          1           0.1271
     67 H28         5.0681    -7.6437    90.0472 H          1           0.1140
     68 H29         6.5585    -8.1034    90.9124 H          1           0.1482
     69 H30         5.7314    -5.8006    91.5221 H          1           0.1588
     70 H31         7.3704    -5.7950    90.8277 H          1           0.1389
     71 H32         6.4206    -4.5037    87.6128 H          1           0.1591
     72 H33         7.7553    -5.0710    88.6450 H          1           0.1387
     73 H34         7.2571    -6.7965    86.9921 H          1           0.1484
     74 H35         5.5320    -6.7761    87.4444 H          1           0.1136
     75 H36        12.5692    -9.2669    86.5280 H          1           0.1280
     76 H37        13.4944    -8.0773    88.4741 H          1           0.1355
@<TRIPOS>BOND
     1    1    2 1
     2    1   43 1
     3    2   42 ar
     4    2    3 ar
     5    3    4 ar
     6    3   44 1
     7    4    5 ar
     8    4   45 1
     9    5    6 1
    10    5   41 ar
    11    6    7 1
    12    6   46 1
    13    6   47 1
    14    7    8 1
    15    7   48 1
    16    7   49 1
    17    8    9 1
    18    8   50 1
    19    9   31 ar
    20    9   10 ar
    21   10   11 ar
    22   11   12 ar
    23   11   33 1
    24   12   13 ar
    25   13   14 1
    26   13   31 ar
    27   14   15 1
    28   14   51 1
    29   15   16 1
    30   15   52 1
    31   15   53 1
    32   16   17 1
    33   16   54 1
    34   16   55 1
    35   17   18 1
    36   17   56 1
    37   17   57 1
    38   18   19 1
    39   19   24 ar
    40   19   20 ar
    41   20   21 ar
    42   20   58 1
    43   21   22 ar
    44   21   25 1
    45   22   23 ar
    46   22   59 1
    47   23   24 ar
    48   23   60 1
    49   24   61 1
    50   25   30 ar
    51   25   26 ar
    52   26   27 ar
    53   26   62 1
    54   27   28 ar
    55   27   63 1
    56   28   29 ar
    57   28   64 1
    58   29   30 ar
    59   29   65 1
    60   30   66 1
    61   31   32 1
    62   33   40 1
    63   33   34 1
    64   34   35 1
    65   34   67 1
    66   34   68 1
    67   35   36 1
    68   35   69 1
    69   35   70 1
    70   36   37 1
    71   36   38 1
    72   36   39 1
    73   39   40 1
    74   39   71 1
    75   39   72 1
    76   40   73 1
    77   40   74 1
    78   41   42 ar
    79   41   75 1
    80   42   76 1
##########                 Name:              T533725
##########          Protonation:                   98
##########               SMILES:   c1cc2c(cc(cc2)C[NH+]3CC[C@@H](CC3)C[NH2+]Cc4cc(ccc4)[N+](=O)[O-])cc1
##########            Long Name:   2-naphthylmethyl)piperidin-1-ium-4-yl]methyl-[(3-nitrophenyl)methyl]ammonium
##########          FlexRecCode: 1
##########               Number:                   29
##########   Ligand Source File: /raidb/db2/rgc/tcams/tcams-0001133.db2.gz
##########           GlobalRank: 269
##########                 Rank:                    1
##########               Setnum:                  161
##########             Matchnum:                 1429
##########                Cloud:                    1
##########        Electrostatic:           -56.903076
##########        Van der Waals:           -26.313602
##########  Ligand Polar Desolv:            21.699339
########## Ligand Apolar Desolv:            -3.880697
##########      Internal Energy:             0.000000
##########      Receptor Energy: 0.0
########## Receptor Desolvation:             0.000000
########## Receptor Hydrophobic:             0.000000
##########         Total Energy: -65.4
##########        Ligand Charge:             2.000000
##########            Arbitrary:    +999.9990
##########     heavy atom count:   29
##########           pose count:    1
##########        Ligand Energy:             0.000000
# num electro vdwattr vdwrepu polsolv apolsol rdesolv rhydroe totalscore fullpol fullapo
#   1    0.17   -0.41    0.01   -0.78   -0.12    0.00    0.00      -1.12   -4.22   -0.63
#   2   -0.03   -0.76    0.09    0.12    0.09    0.00    0.00      -0.50    0.56    0.42
#   3    0.25   -1.14    0.23   -0.51   -0.18    0.00    0.00      -1.34   -1.79   -0.63
#   4    0.10   -0.76    0.13   -0.59   -0.14    0.00    0.00      -1.27   -2.86   -0.70
#   5    0.10   -0.43    0.02   -0.06   -0.07    0.00    0.00      -0.45   -0.38   -0.43
#   6    2.11   -0.55    0.03   -0.75   -0.07    0.00    0.00       0.77   -3.71   -0.37
#   7   -0.76   -0.27    0.01    0.62   -0.07    0.00    0.00      -0.47    3.90   -0.42
#   8   15.77   -1.08    0.41   -7.06    0.18    0.00    0.00       8.22  -28.36    0.73
#   9  -17.76   -0.05    0.00    5.84    0.10    0.00    0.00     -11.86   25.98    0.45
#  10  -15.30   -0.03    0.00    6.59    0.15    0.00    0.00      -8.59   25.76    0.57
#  11    0.50   -0.47    0.05   -0.18   -0.07    0.00    0.00      -0.18   -0.85   -0.33
#  12    4.40   -0.93    0.34   -1.84   -0.06    0.00    0.00       1.90   -5.43   -0.19
#  13    3.70   -0.64    0.04   -2.82   -0.07    0.00    0.00       0.20   -8.49   -0.22
#  14    0.34   -0.63    0.03   -0.42   -0.13    0.00    0.00      -0.82   -1.19   -0.37
#  15    9.69   -1.14    0.13   -7.57    0.11    0.00    0.00       1.22  -18.51    0.27
#  16  -11.77   -0.04    0.00    7.89    0.20    0.00    0.00      -3.71   20.79    0.54
#  17   -1.27   -1.18    0.26    1.32   -0.16    0.00    0.00      -1.03    2.99   -0.36
#  18    4.22   -1.28    0.30   -1.28   -0.12    0.00    0.00       1.83   -3.44   -0.33
#  19    1.15   -0.94    0.09   -0.85   -0.13    0.00    0.00      -0.68   -2.77   -0.44
#  20    0.62   -1.11    0.34   -0.60   -0.11    0.00    0.00      -0.85   -2.25   -0.40
#  21    0.81   -1.11    0.38   -0.55   -0.12    0.00    0.00      -0.59   -2.03   -0.46
#  22    0.23   -1.01    0.27   -0.67   -0.11    0.00    0.00      -1.29   -2.78   -0.47
#  23    0.19   -0.89    0.20   -0.52   -0.10    0.00    0.00      -1.14   -2.35   -0.47
#  24    0.24   -1.18    0.24   -0.71   -0.14    0.00    0.00      -1.54   -2.35   -0.46
#  25    0.14   -1.28    0.29   -0.60   -0.13    0.00    0.00      -1.58   -1.78   -0.40
#  26    0.78   -2.02    0.65   -1.87   -0.20    0.00    0.00      -2.65   -4.40   -0.46
#  27    2.37   -1.64    0.32   -0.83   -0.16    0.00    0.00       0.07   -1.90   -0.37
#  28    0.63   -0.86    0.09   -0.53   -0.12    0.00    0.00      -0.79   -1.44   -0.33
#  29    5.34   -1.42    0.41   -2.82   -0.10    0.00    0.00       1.40   -6.51   -0.24
#  30    0.90   -1.10    0.20    0.04   -0.12    0.00    0.00      -0.08    0.15   -0.45
#  31    0.88   -1.50    0.64   -1.21   -0.13    0.00    0.00      -1.32   -4.30   -0.47
#  32    0.06   -1.31    0.42   -0.69   -0.12    0.00    0.00      -1.63   -2.66   -0.45
#  33   -0.40   -0.05    0.00    0.41   -0.01    0.00    0.00      -0.05    8.95   -0.27
#  34   -1.49   -0.05    0.00    0.57   -0.01    0.00    0.00      -0.99   11.09   -0.28
#  35   -1.75   -0.05    0.00    0.55   -0.01    0.00    0.00      -1.27   11.65   -0.28
#  36   -2.48   -0.09    0.00    0.79   -0.02    0.00    0.00      -1.79    9.99   -0.28
#  37   -2.25   -0.10    0.00    1.20   -0.02    0.00    0.00      -1.17   11.95   -0.18
#  38   -5.99   -0.75    1.58    1.40   -0.07    0.00    0.00      -3.83    5.46   -0.28
#  39   -1.84   -0.15    0.00    1.04   -0.03    0.00    0.00      -0.97    7.65   -0.22
#  40   -3.08   -0.37    0.09    0.77   -0.08    0.00    0.00      -2.67    2.83   -0.28
#  41   -1.56   -0.15    0.01    1.78   -0.03    0.00    0.00       0.05   12.42   -0.22
#  42   -2.41   -0.26    0.02    2.05   -0.08    0.00    0.00      -0.68    7.39   -0.28
#  43   -4.41   -0.52    0.21    4.92   -0.13    0.00    0.00       0.07   10.68   -0.28
#  44   -4.04   -0.53    0.26    3.12   -0.11    0.00    0.00      -1.29    8.02   -0.27
#  45   -2.85   -0.17    0.01    1.21   -0.05    0.00    0.00      -1.85    6.48   -0.28
#  46   -1.39   -0.18    0.02    0.66   -0.05    0.00    0.00      -0.94    3.39   -0.28
#  47   -0.26   -0.14    0.01    0.23   -0.05    0.00    0.00      -0.21    1.25   -0.28
#  48   -0.23   -0.10    0.01    0.09   -0.03    0.00    0.00      -0.26    0.88   -0.28
#  49   -0.22   -0.34    0.15    0.47   -0.08    0.00    0.00      -0.01    1.68   -0.28
#  50   -1.09   -0.87    0.71    1.18   -0.12    0.00    0.00      -0.19    2.73   -0.28
#  51   -2.11   -0.39    0.06    4.05   -0.12    0.00    0.00       1.49    9.02   -0.27
#  52   -2.74   -0.14    0.00    1.61   -0.03    0.00    0.00      -1.28   11.81   -0.22
#  53   -3.88   -0.44    0.11    1.24   -0.07    0.00    0.00      -3.04    3.67   -0.20
#  54   -4.55   -0.53    0.09    0.99   -0.13    0.00    0.00      -4.13    2.06   -0.28
#  55   -6.19   -0.90    0.76    1.91   -0.11    0.00    0.00      -4.53    4.82   -0.28
#  56   -4.99   -0.32    0.09    2.33   -0.06    0.00    0.00      -2.95   10.65   -0.28
#  57   -2.95   -0.34    0.12    0.89   -0.07    0.00    0.00      -2.34    3.80   -0.28
#  58   -0.59   -0.26    0.05    0.13   -0.06    0.00    0.00      -0.73    0.62   -0.27

@<TRIPOS>MOLECULE
          T533725        98
   58    61     0     0     0



@<TRIPOS>ATOM
      1 O1          1.5969    -7.0325    86.3685 O.2        1          -0.1238
      2 N1          2.6259    -6.4719    86.0705 N.pl3      1           0.0203
      3 O2          2.7820    -6.0515    84.9477 O.3        1          -0.1458
      4 C1          3.6919    -6.2948    87.0820 C.ar       1          -0.0410
      5 C2          3.5156    -6.7805    88.3645 C.ar       1          -0.0346
      6 C3          4.5109    -6.6151    89.3090 C.ar       1          -0.1738
      7 C4          4.3186    -7.1440    90.7069 C.3        1           0.0492
      8 N2          4.7459    -6.1280    91.6780 N.4        1          -0.5132
      9 H1          5.7206    -5.9115    91.5314 H          1           0.4248
     10 H2          4.1938    -5.2924    91.5555 H          1           0.4354
     11 C5          4.5584    -6.6435    93.0407 C.3        1          -0.0209
     12 C6          5.0035    -5.5852    94.0521 C.3        1          -0.1270
     13 C7          4.7993    -6.1174    95.4735 C.3        1          -0.1595
     14 C8          3.3082    -6.3671    95.7095 C.3        1          -0.0178
     15 N3          2.5660    -5.1116    95.5443 N.4        1          -0.3827
     16 H3          2.9358    -4.4178    96.1767 H          1           0.4285
     17 C9          1.1467    -5.3402    95.8461 C.3        1           0.0448
     18 C10         0.5940    -6.3790    94.9045 C.ar       1          -0.1687
     19 C11         0.0530    -5.9883    93.7179 C.ar       1          -0.0551
     20 C12        -0.4627    -6.9541    92.8375 C.ar       1          -0.0604
     21 C13        -1.0284    -6.5894    91.6037 C.ar       1          -0.1068
     22 C14        -1.5178    -7.5527    90.7763 C.ar       1          -0.0972
     23 C15        -1.4676    -8.8990    91.1335 C.ar       1          -0.0875
     24 C16        -0.9277    -9.2895    92.3202 C.ar       1          -0.1122
     25 C17        -0.4113    -8.3234    93.2006 C.ar       1          -0.0342
     26 C18         0.1547    -8.6882    94.4336 C.ar       1          -0.0781
     27 C19         0.6495    -7.7254    95.2590 C.ar       1          -0.1274
     28 C20         2.6986    -4.6327    94.1631 C.3        1          -0.0235
     29 C21         4.1662    -4.3163    93.8676 C.3        1          -0.1361
     30 C22         5.6833    -5.9648    88.9712 C.ar       1          -0.0446
     31 C23         5.8598    -5.4798    87.6891 C.ar       1          -0.1030
     32 C24         4.8658    -5.6489    86.7430 C.ar       1          -0.0169
     33 H4          2.5999    -7.2888    88.6283 H          1           0.1597
     34 H5          3.2659    -7.3779    90.8653 H          1           0.1526
     35 H6          4.9152    -8.0466    90.8392 H          1           0.1456
     36 H7          3.5057    -6.8772    93.1990 H          1           0.1517
     37 H8          5.1550    -7.5461    93.1730 H          1           0.1299
     38 H9          6.0570    -5.3526    93.8966 H          1           0.1284
     39 H10         5.3484    -7.0512    95.5949 H          1           0.1067
     40 H11         5.1638    -5.3840    96.1927 H          1           0.1188
     41 H12         2.9448    -7.1009    94.9901 H          1           0.1235
     42 H13         3.1594    -6.7463    96.7205 H          1           0.1459
     43 H14         1.0454    -5.6903    96.8732 H          1           0.1360
     44 H15         0.5945    -4.4084    95.7237 H          1           0.1405
     45 H16         0.0203    -4.9413    93.4549 H          1           0.1349
     46 H17        -1.0748    -5.5500    91.3138 H          1           0.1350
     47 H18        -1.9519    -7.2697    89.8287 H          1           0.1366
     48 H19        -1.8634    -9.6435    90.4587 H          1           0.1374
     49 H20        -0.8962   -10.3363    92.5839 H          1           0.1382
     50 H21         0.2006    -9.7277    94.7235 H          1           0.1396
     51 H22         1.0876    -8.0088    96.2046 H          1           0.1263
     52 H23         2.3482    -5.4035    93.4766 H          1           0.1269
     53 H24         2.0996    -3.7314    94.0324 H          1           0.1480
     54 H25         4.5176    -3.5454    94.5534 H          1           0.1112
     55 H26         4.2629    -3.9626    92.8411 H          1           0.1256
     56 H27         6.4611    -5.8356    89.7092 H          1           0.1542
     57 H28         6.7754    -4.9714    87.4253 H          1           0.1655
     58 H29         5.0054    -5.2734    85.7401 H          1           0.1705
@<TRIPOS>BOND
     1    1    2 2
     2    2    3 1
     3    2    4 1
     4    4   32 ar
     5    4    5 ar
     6    5    6 ar
     7    5   33 1
     8    6    7 1
     9    6   30 ar
    10    7    8 1
    11    7   34 1
    12    7   35 1
    13    8    9 1
    14    8   10 1
    15    8   11 1
    16   11   12 1
    17   11   36 1
    18   11   37 1
    19   12   29 1
    20   12   13 1
    21   12   38 1
    22   13   14 1
    23   13   39 1
    24   13   40 1
    25   14   15 1
    26   14   41 1
    27   14   42 1
    28   15   16 1
    29   15   17 1
    30   15   28 1
    31   17   18 1
    32   17   43 1
    33   17   44 1
    34   18   27 ar
    35   18   19 ar
    36   19   20 ar
    37   19   45 1
    38   20   25 ar
    39   20   21 ar
    40   21   22 ar
    41   21   46 1
    42   22   23 ar
    43   22   47 1
    44   23   24 ar
    45   23   48 1
    46   24   25 ar
    47   24   49 1
    48   25   26 ar
    49   26   27 ar
    50   26   50 1
    51   27   51 1
    52   28   29 1
    53   28   52 1
    54   28   53 1
    55   29   54 1
    56   29   55 1
    57   30   31 ar
    58   30   56 1
    59   31   32 ar
    60   31   57 1
    61   32   58 1
##########                 Name:              T527627
##########          Protonation:                   16
##########               SMILES:   c1ccc(cc1)CCNC[C@@H](CCNc2cc(=O)c3ccccc3[nH]2)[NH2+]Cc4cc(cc(c4)Br)Br
##########            Long Name:   -3-[(4-oxo-1H-quinolin-2-yl)amino]-1-[(phenethylamino)methyl]propyl]ammonium
##########          FlexRecCode: 1
##########               Number:                  261
##########   Ligand Source File: /raidb/db2/rgc/tcams/tcams-0000307.db2.gz
##########           GlobalRank: 270
##########                 Rank:                    1
##########               Setnum:                  251
##########             Matchnum:                  167
##########                Cloud:                    1
##########        Electrostatic:           -35.171993
##########        Van der Waals:           -30.888403
##########  Ligand Polar Desolv:             5.199126
########## Ligand Apolar Desolv:            -4.516694
##########      Internal Energy:             0.000000
##########      Receptor Energy: 0.0
########## Receptor Desolvation:             0.000000
########## Receptor Hydrophobic:             0.000000
##########         Total Energy: -65.38
##########        Ligand Charge:             1.000000
##########            Arbitrary:    +999.9990
##########     heavy atom count:   35
##########           pose count:    1
##########        Ligand Energy:             0.000000
# num electro vdwattr vdwrepu polsolv apolsol rdesolv rhydroe totalscore fullpol fullapo
#   1    0.00   -9.49    7.66   -0.80   -0.61    0.00    0.00      -3.25   -1.43   -1.09
#   2    1.78   -1.20    0.11   -0.96   -0.13    0.00    0.00      -0.40   -2.20   -0.30
#   3    0.86   -0.90    0.06   -0.30   -0.14    0.00    0.00      -0.42   -0.94   -0.44
#   4    3.56   -0.75    0.03   -0.67   -0.10    0.00    0.00       2.07   -2.39   -0.37
#   5   -1.01   -0.70    0.15    0.39   -0.10    0.00    0.00      -1.26    1.40   -0.34
#   6   11.99   -0.59    0.08   -4.49    0.14    0.00    0.00       7.12  -20.67    0.65
#   7   -5.29   -0.01    0.00    2.04    0.05    0.00    0.00      -3.20   20.41    0.45
#   8  -10.41   -0.01    0.00    2.31    0.06    0.00    0.00      -8.05   19.31    0.47
#   9   -1.04   -0.76    0.21    0.87   -0.07    0.00    0.00      -0.80    3.44   -0.27
#  10    3.17   -0.35    0.03   -1.08   -0.04    0.00    0.00       1.73   -5.76   -0.19
#  11   -2.42   -0.65    0.13    0.35   -0.08    0.00    0.00      -2.67    1.54   -0.36
#  12   19.83   -1.33    0.32   -4.87    0.46    0.00    0.00      14.41  -17.97    1.68
#  13   -5.06   -0.59    0.04    2.19   -0.44    0.00    0.00      -3.86   10.20   -2.03
#  14    2.52   -1.00    0.30   -0.96   -0.11    0.00    0.00       0.76   -4.00   -0.45
#  15   -0.70   -0.57    0.07   -0.06   -0.06    0.00    0.00      -1.32   -0.36   -0.31
#  16    0.73   -0.67    0.09    1.12    0.10    0.00    0.00       1.38    4.95    0.44
#  17    0.27   -0.25    0.00   -0.11   -0.04    0.00    0.00      -0.13   -1.06   -0.41
#  18    0.04   -0.21    0.00   -0.03   -0.04    0.00    0.00      -0.24   -0.37   -0.45
#  19    0.15   -0.15    0.00   -0.07   -0.03    0.00    0.00      -0.09   -1.08   -0.47
#  20    0.06   -0.10    0.00   -0.04   -0.02    0.00    0.00      -0.10   -0.85   -0.47
#  21    0.22   -0.11    0.00   -0.10   -0.02    0.00    0.00      -0.01   -2.10   -0.46
#  22   -0.34   -0.18    0.00    0.19   -0.05    0.00    0.00      -0.38    2.64   -0.72
#  23    3.37   -0.25    0.00   -1.29    0.11    0.00    0.00       1.95  -11.66    1.01
#  24   -0.54   -0.99    0.40    0.15   -0.09    0.00    0.00      -1.06    0.56   -0.35
#  25    5.57   -0.90    0.13   -5.12    0.62    0.00    0.00       0.31  -21.44    2.61
#  26   -0.37   -0.75    0.11    0.54   -0.12    0.00    0.00      -0.58    1.95   -0.42
#  27    0.54   -0.80    0.08   -0.50   -0.08    0.00    0.00      -0.77   -1.49   -0.25
#  28    0.69   -1.40    0.18   -0.44   -0.14    0.00    0.00      -1.11   -1.11   -0.36
#  29    1.28   -1.78    0.54   -0.75   -0.21    0.00    0.00      -0.92   -1.62   -0.45
#  30    1.17   -2.42    1.10   -0.78   -0.26    0.00    0.00      -1.19   -1.41   -0.47
#  31    0.73   -2.56    0.61   -0.78   -0.28    0.00    0.00      -2.28   -1.29   -0.47
#  32    0.90   -2.02    0.29   -0.76   -0.27    0.00    0.00      -1.85   -1.30   -0.47
#  33    0.69   -1.56    0.19   -0.74   -0.21    0.00    0.00      -1.64   -1.56   -0.45
#  34    1.40   -1.08    0.10   -0.32   -0.15    0.00    0.00      -0.05   -0.95   -0.44
#  35    2.03   -1.16    0.11   -0.77   -0.11    0.00    0.00       0.10   -2.18   -0.30
#  36    0.01   -5.87    2.43   -0.62   -0.48    0.00    0.00      -4.52   -1.40   -1.09
#  37    0.80   -1.37    0.26   -0.60   -0.18    0.00    0.00      -1.09   -1.53   -0.45
#  38   -1.36   -0.23    0.04    1.27   -0.06    0.00    0.00      -0.34    6.19   -0.28
#  39   -6.78   -0.72    1.32    1.77   -0.05    0.00    0.00      -4.46    6.94   -0.20
#  40   -3.82   -0.16    0.01    1.26   -0.03    0.00    0.00      -2.74    8.07   -0.22
#  41   -7.32   -0.91    2.17    2.35   -0.08    0.00    0.00      -3.81    7.97   -0.28
#  42   -2.16   -0.09    0.00    0.40   -0.03    0.00    0.00      -1.88    3.95   -0.28
#  43   -1.24   -0.05    0.00    0.24   -0.01    0.00    0.00      -1.06    5.32   -0.22
#  44   -2.06   -0.51    0.28    1.46   -0.06    0.00    0.00      -0.88    5.55   -0.22
#  45   -1.39   -0.08    0.00    0.36   -0.02    0.00    0.00      -1.13    4.21   -0.27
#  46  -17.66   -0.05    0.00    3.41    0.17    0.00    0.00     -14.12   11.36    0.57
#  47   -1.82   -0.49    0.50    0.19   -0.07    0.00    0.00      -1.70    0.75   -0.28
#  48   -0.16   -0.05    0.00   -0.03   -0.01    0.00    0.00      -0.26   -0.57   -0.27
#  49   -0.12   -0.03    0.00    0.03   -0.01    0.00    0.00      -0.13    0.85   -0.28
#  50   -0.12   -0.01    0.00    0.06   -0.01    0.00    0.00      -0.08    2.78   -0.28
#  51   -0.16   -0.02    0.00    0.13   -0.01    0.00    0.00      -0.06    5.25   -0.28
#  52   -2.71    0.00    0.00    0.50    0.02    0.00    0.00      -2.19   13.18    0.46
#  53   -1.00   -0.59    0.64    0.73   -0.05    0.00    0.00      -0.27    3.33   -0.22
#  54   -2.68   -0.49    0.33    0.70   -0.07    0.00    0.00      -2.21    2.89   -0.28
#  55   -1.72   -0.01    0.00    1.60    0.06    0.00    0.00      -0.07   12.64    0.44
#  56   -0.05   -0.36    0.12    0.25   -0.06    0.00    0.00      -0.11    1.07   -0.28
#  57   -0.74   -0.29    0.16    0.17   -0.05    0.00    0.00      -0.75    1.02   -0.28
#  58   -1.06   -0.25    0.04    0.30   -0.05    0.00    0.00      -1.03    1.56   -0.28
#  59   -0.20   -0.37    0.09    0.65   -0.08    0.00    0.00       0.10    2.41   -0.28
#  60   -1.74   -0.30    0.03    0.89   -0.09    0.00    0.00      -1.21    2.66   -0.28
#  61   -1.65   -0.73    0.76    0.63   -0.15    0.00    0.00      -1.13    1.18   -0.28
#  62   -0.14   -0.99    0.69    0.41   -0.17    0.00    0.00      -0.20    0.68   -0.28
#  63   -1.36   -0.54    0.13    0.51   -0.15    0.00    0.00      -1.41    0.94   -0.28
#  64   -0.59   -0.36    0.07    0.59   -0.09    0.00    0.00      -0.37    1.92   -0.28
#  65   -4.62   -0.39    0.13    1.89   -0.08    0.00    0.00      -3.08    6.26   -0.28
#  66   -5.88   -0.70    0.99    0.34   -0.10    0.00    0.00      -5.35    1.00   -0.28

@<TRIPOS>MOLECULE
          T527627        16
   66    69     0     0     0



@<TRIPOS>ATOM
      1 Br1         1.1252    -7.8057    97.1730 Br         1           0.0001
      2 C1          1.7936    -6.6416    95.8409 C.ar       1          -0.0859
      3 C2          3.1033    -6.7609    95.4118 C.ar       1          -0.0538
      4 C3          3.5918    -5.9105    94.4379 C.ar       1          -0.1525
      5 C4          5.0185    -6.0411    93.9704 C.3        1           0.0332
      6 N1          5.0791    -6.9749    92.8380 N.4        1          -0.5119
      7 H1          4.7363    -7.8784    93.1284 H          1           0.4269
      8 H2          4.5085    -6.6254    92.0829 H          1           0.4334
      9 C5          6.4699    -7.1023    92.3823 C.3        1           0.0373
     10 C6          6.4901    -7.6438    90.9515 C.3        1          -0.1601
     11 C7          6.2033    -6.5047    89.9711 C.3        1           0.0937
     12 N2          4.8853    -5.9334    90.2584 N.pl3      1          -0.7320
     13 C8          3.7679    -6.4394    89.6404 C.2        1           0.4690
     14 C9          2.5421    -5.8835    89.9212 C.2        1          -0.3909
     15 C10         1.3864    -6.3842    89.3007 C.2        1           0.4266
     16 O1          0.2883    -5.9044    89.5363 O.2        1          -0.4999
     17 C11         1.5372    -7.5069    88.3555 C.ar       1          -0.1879
     18 C12         0.4334    -8.0545    87.7024 C.ar       1          -0.0305
     19 C13         0.6116    -9.1019    86.8260 C.ar       1          -0.1489
     20 C14         1.8805    -9.6123    86.5916 C.ar       1          -0.0582
     21 C15         2.9800    -9.0814    87.2300 C.ar       1          -0.1722
     22 C16         2.8214    -8.0227    88.1187 C.ar       1           0.1891
     23 N3          3.9091    -7.4714    88.7648 N.pl3      1          -0.6285
     24 C17         7.2219    -8.0656    93.3030 C.3        1           0.0298
     25 N4          6.3479    -9.1944    93.6497 N.3        1          -0.6937
     26 C18         7.0382   -10.1421    94.5346 C.3        1           0.0638
     27 C19         7.0100    -9.6128    95.9699 C.3        1          -0.0765
     28 C20         7.7181   -10.5849    96.8779 C.ar       1          -0.0960
     29 C21         8.3620   -10.1276    98.0125 C.ar       1          -0.1172
     30 C22         9.0114   -11.0192    98.8455 C.ar       1          -0.1165
     31 C23         9.0167   -12.3684    98.5442 C.ar       1          -0.1152
     32 C24         8.3721   -12.8259    97.4102 C.ar       1          -0.1153
     33 C25         7.7189   -11.9346    96.5794 C.ar       1          -0.1136
     34 C26         2.7719    -4.9405    93.8921 C.ar       1          -0.0541
     35 C27         1.4623    -4.8202    94.3210 C.ar       1          -0.0854
     36 Br2         0.3410    -3.4930    93.5747 Br         1          -0.0004
     37 C28         0.9713    -5.6747    95.2915 C.ar       1          -0.0294
     38 H3          3.7443    -7.5183    95.8382 H          1           0.1478
     39 H4          5.3888    -5.0650    93.6567 H          1           0.1429
     40 H5          5.6349    -6.4186    94.7861 H          1           0.1487
     41 H6          6.9516    -6.1248    92.4078 H          1           0.1595
     42 H7          7.4708    -8.0689    90.7378 H          1           0.1306
     43 H8          5.7283    -8.4160    90.8444 H          1           0.1026
     44 H9          6.9653    -5.7329    90.0781 H          1           0.0555
     45 H10         6.2176    -6.8906    88.9517 H          1           0.0844
     46 H11         4.8017    -5.1977    90.8850 H          1           0.4278
     47 H12         2.4681    -5.0624    90.6189 H          1           0.1461
     48 H13        -0.5556    -7.6598    87.8829 H          1           0.1426
     49 H14        -0.2410    -9.5287    86.3187 H          1           0.1352
     50 H15         2.0074   -10.4338    85.9021 H          1           0.1352
     51 H16         3.9633    -9.4860    87.0406 H          1           0.1290
     52 H17         4.7941    -7.8301    88.5938 H          1           0.4065
     53 H18         8.1101    -8.4375    92.7921 H          1           0.0636
     54 H19         7.5179    -7.5427    94.2123 H          1           0.1265
     55 H20         6.0077    -9.6565    92.8198 H          1           0.3267
     56 H21         6.5363   -11.1088    94.4941 H          1           0.0457
     57 H22         8.0723   -10.2556    94.2096 H          1           0.0894
     58 H23         7.5120    -8.6461    96.0106 H          1           0.0852
     59 H24         5.9759    -9.4991    96.2951 H          1           0.0710
     60 H25         8.3578    -9.0735    98.2479 H          1           0.1181
     61 H26         9.5151   -10.6620    99.7315 H          1           0.1245
     62 H27         9.5248   -13.0650    99.1946 H          1           0.1256
     63 H28         8.3764   -13.8798    97.1745 H          1           0.1257
     64 H29         7.2121   -12.2925    95.6954 H          1           0.1223
     65 H30         3.1540    -4.2762    93.1312 H          1           0.1476
     66 H31        -0.0525    -5.5841    95.6233 H          1           0.1573
@<TRIPOS>BOND
     1    1    2 1
     2    2   37 ar
     3    2    3 ar
     4    3    4 ar
     5    3   38 1
     6    4    5 1
     7    4   34 ar
     8    5    6 1
     9    5   39 1
    10    5   40 1
    11    6    7 1
    12    6    8 1
    13    6    9 1
    14    9   10 1
    15    9   24 1
    16    9   41 1
    17   10   11 1
    18   10   42 1
    19   10   43 1
    20   11   12 1
    21   11   44 1
    22   11   45 1
    23   12   13 1
    24   12   46 1
    25   13   23 1
    26   13   14 2
    27   14   15 1
    28   14   47 1
    29   15   16 2
    30   15   17 1
    31   17   22 ar
    32   17   18 ar
    33   18   19 ar
    34   18   48 1
    35   19   20 ar
    36   19   49 1
    37   20   21 ar
    38   20   50 1
    39   21   22 ar
    40   21   51 1
    41   22   23 1
    42   23   52 1
    43   24   25 1
    44   24   53 1
    45   24   54 1
    46   25   26 1
    47   25   55 1
    48   26   27 1
    49   26   56 1
    50   26   57 1
    51   27   28 1
    52   27   58 1
    53   27   59 1
    54   28   33 ar
    55   28   29 ar
    56   29   30 ar
    57   29   60 1
    58   30   31 ar
    59   30   61 1
    60   31   32 ar
    61   31   62 1
    62   32   33 ar
    63   32   63 1
    64   33   64 1
    65   34   35 ar
    66   34   65 1
    67   35   36 1
    68   35   37 ar
    69   37   66 1
##########                 Name:              T531177
##########          Protonation:                   25
##########               SMILES:   Cc1cc(ccc1)C(=O)Nc2cc([nH+]cc2)N3CC[C@@H](CC3)[NH+](Cc4cc(ccc4)C#N)C
##########            Long Name:   ethyl-[1-[4-[(3-methylbenzoyl)amino]pyridin-1-ium-2-yl]-4-piperidyl]ammonium
##########          FlexRecCode: 1
##########               Number:                   17
##########   Ligand Source File: /raidb/db2/rgc/tcams/tcams-0000829.db2.gz
##########           GlobalRank: 271
##########                 Rank:                    1
##########               Setnum:                  219
##########             Matchnum:                 1474
##########                Cloud:                    1
##########        Electrostatic:           -41.220661
##########        Van der Waals:           -30.315935
##########  Ligand Polar Desolv:            10.224566
########## Ligand Apolar Desolv:            -4.053973
##########      Internal Energy:             0.000000
##########      Receptor Energy: 0.0
########## Receptor Desolvation:             0.000000
########## Receptor Hydrophobic:             0.000000
##########         Total Energy: -65.37
##########        Ligand Charge:             2.000000
##########            Arbitrary:    +999.9990
##########     heavy atom count:   33
##########           pose count:    1
##########        Ligand Energy:             0.000000
# num electro vdwattr vdwrepu polsolv apolsol rdesolv rhydroe totalscore fullpol fullapo
#   1    1.32   -0.80    0.13   -1.17   -0.15    0.00    0.00      -0.67   -3.45   -0.44
#   2    5.72   -0.42    0.02   -3.79    0.05    0.00    0.00       1.57  -17.46    0.21
#   3   -7.61   -0.01    0.00    2.36    0.06    0.00    0.00      -5.20   21.39    0.54
#   4   -0.12   -0.21    0.01    0.34   -0.05    0.00    0.00      -0.04    2.39   -0.34
#   5    0.39   -0.47    0.03   -0.72   -0.06    0.00    0.00      -0.84   -3.83   -0.33
#   6    0.18   -0.71    0.08   -0.21   -0.08    0.00    0.00      -0.74   -0.95   -0.36
#   7    0.24   -1.12    0.30   -1.01   -0.11    0.00    0.00      -1.69   -4.20   -0.47
#   8    0.07   -1.52    1.42   -0.51   -0.10    0.00    0.00      -0.64   -2.32   -0.45
#   9    0.01   -1.17    0.81   -0.50   -0.08    0.00    0.00      -0.94   -2.39   -0.40
#  10    0.11   -0.60    0.08   -0.14   -0.08    0.00    0.00      -0.64   -0.74   -0.44
#  11   -0.37   -1.12    0.36    1.24   -0.36    0.00    0.00      -0.27    5.03   -1.46
#  12    0.53   -1.59    0.61   -1.76    0.19    0.00    0.00      -2.02   -6.55    0.71
#  13   -0.38   -0.28    0.01    0.37   -0.03    0.00    0.00      -0.31    2.27   -0.16
#  14    4.39   -0.84    0.16   -2.20   -0.06    0.00    0.00       1.45   -7.64   -0.22
#  15   -2.73   -0.82    0.18    0.99   -0.13    0.00    0.00      -2.52    3.73   -0.48
#  16   14.31   -0.73    0.09   -4.98    0.34    0.00    0.00       9.04  -24.45    1.69
#  17   -1.67   -0.20    0.01    0.52   -0.06    0.00    0.00      -1.41    4.06   -0.48
#  18    2.35   -0.24    0.01   -1.19   -0.03    0.00    0.00       0.89   -7.93   -0.22
#  19  -13.89   -1.26    0.57    4.35   -0.47    0.00    0.00     -10.70   18.78   -2.01
#  20    6.41   -1.03    0.24   -1.95   -0.11    0.00    0.00       3.57   -7.91   -0.43
#  21   -7.96   -0.89    0.11    1.93   -0.18    0.00    0.00      -6.98    7.38   -0.68
#  22   12.22   -0.93    0.06   -5.39    0.51    0.00    0.00       6.47  -17.31    1.64
#  23   -6.93   -1.17    0.20    3.52   -0.19    0.00    0.00      -4.58   11.67   -0.64
#  24    4.78   -0.91    0.12   -2.37    0.08    0.00    0.00       1.72   -9.26    0.33
#  25    1.66   -1.32    0.19   -0.99   -0.14    0.00    0.00      -0.60   -2.84   -0.41
#  26    0.35   -1.26    0.12   -0.56   -0.16    0.00    0.00      -1.51   -1.51   -0.43
#  27    0.68   -1.66    0.40   -0.86   -0.19    0.00    0.00      -1.63   -1.76   -0.40
#  28    0.89   -1.35    0.21   -0.88   -0.12    0.00    0.00      -1.24   -1.50   -0.20
#  29    0.93   -2.20    1.00   -0.98   -0.24    0.00    0.00      -1.49   -1.88   -0.46
#  30    1.96   -1.96    0.31   -1.38   -0.26    0.00    0.00      -1.33   -2.52   -0.47
#  31    1.36   -1.71    0.32   -0.59   -0.21    0.00    0.00      -0.83   -1.26   -0.44
#  32    4.79   -0.90    0.11   -2.03   -0.11    0.00    0.00       1.86   -7.49   -0.41
#  33   -5.38   -1.25    0.30    2.08   -0.27    0.00    0.00      -4.53    7.45   -0.97
#  34   17.09   -1.59    0.63   -5.17    0.26    0.00    0.00      11.22  -19.04    0.96
#  35  -13.05   -0.02    0.00    4.88    0.10    0.00    0.00      -8.09   19.89    0.41
#  36   -2.26   -0.46    0.33    1.54   -0.05    0.00    0.00      -0.91    6.71   -0.22
#  37   -3.71   -0.23    0.02    1.14   -0.06    0.00    0.00      -2.85    3.97   -0.21
#  38   -3.26   -0.36    0.09    2.34   -0.09    0.00    0.00      -1.28    7.63   -0.28
#  39   -0.61   -0.03    0.00    0.32   -0.01    0.00    0.00      -0.33    8.92   -0.20
#  40   -0.37   -0.08    0.01    0.72   -0.02    0.00    0.00       0.26    9.64   -0.28
#  41   -1.43   -0.13    0.01    1.14   -0.04    0.00    0.00      -0.45    8.48   -0.28
#  42   -0.86   -0.25    0.06    0.73   -0.06    0.00    0.00      -0.38    3.36   -0.28
#  43   -0.23   -0.26    0.12    0.21   -0.05    0.00    0.00      -0.21    1.20   -0.28
#  44   -0.30   -0.09    0.01    0.71   -0.03    0.00    0.00       0.30    6.83   -0.28
#  45   -1.48   -0.06    0.00    0.57   -0.02    0.00    0.00      -0.98    9.83   -0.28
#  46   -3.52   -0.57    0.37    1.43   -0.09    0.00    0.00      -2.38    4.62   -0.28
#  47   -3.08   -0.28    0.05    1.61   -0.05    0.00    0.00      -1.75    6.65   -0.22
#  48   -3.78   -0.72    0.53    1.56   -0.06    0.00    0.00      -2.47    4.85   -0.20
#  49   -1.18   -0.11    0.01    0.67   -0.03    0.00    0.00      -0.65    5.60   -0.28
#  50   -1.46   -0.06    0.00    0.26   -0.01    0.00    0.00      -1.27    4.75   -0.20
#  51   -0.92   -0.03    0.00    0.18   -0.01    0.00    0.00      -0.78    5.57   -0.28
#  52   -1.03   -0.04    0.00    0.28   -0.01    0.00    0.00      -0.79    7.03   -0.22
#  53   -1.78   -0.14    0.01    0.69   -0.04    0.00    0.00      -1.26    4.56   -0.28
#  54   -3.77   -0.20    0.03    1.61   -0.04    0.00    0.00      -2.36    8.90   -0.20
#  55   -8.37   -0.01    0.00    2.50    0.08    0.00    0.00      -5.80   13.83    0.46
#  56   -0.66   -0.23    0.02    0.27   -0.06    0.00    0.00      -0.66    1.22   -0.27
#  57   -0.48   -0.54    0.12    0.41   -0.16    0.00    0.00      -0.65    0.74   -0.28
#  58   -0.45   -0.54    0.12    0.42   -0.14    0.00    0.00      -0.58    0.84   -0.28
#  59   -0.63   -0.32    0.02    0.34   -0.13    0.00    0.00      -0.71    0.75   -0.28
#  60   -1.87   -0.58    0.27    0.91   -0.14    0.00    0.00      -1.41    1.85   -0.28
#  61   -3.04   -0.52    0.09    1.92   -0.15    0.00    0.00      -1.70    3.53   -0.28
#  62   -2.20   -0.37    0.07    2.00   -0.07    0.00    0.00      -0.58    6.16   -0.22
#  63   -4.93   -0.15    0.00    0.32   -0.03    0.00    0.00      -4.78    2.38   -0.22
#  64   -6.17   -0.24    0.03    2.16   -0.06    0.00    0.00      -4.28    9.31   -0.28

@<TRIPOS>MOLECULE
          T531177        25
   64    67     0     0     0



@<TRIPOS>ATOM
      1 C1          9.2098    -5.9322    86.4570 C.3        1          -0.0605
      2 N1          9.3581    -6.7842    87.6443 N.4        1          -0.3845
      3 H1          9.9514    -6.3228    88.3174 H          1           0.4246
      4 C2          9.9631    -8.0651    87.2553 C.3        1           0.0402
      5 C3         11.3176    -7.8156    86.6436 C.ar       1          -0.1656
      6 C4         12.1970    -6.9354    87.2492 C.ar       1          -0.0705
      7 C5         13.4424    -6.7004    86.6944 C.ar       1          -0.1062
      8 C6         13.8159    -7.3437    85.5324 C.ar       1          -0.0347
      9 C7         12.9338    -8.2333    84.9163 C.ar       1          -0.0038
     10 C8         11.6801    -8.4694    85.4844 C.ar       1          -0.0515
     11 C9         13.3148    -8.9045    83.7101 C.1        1           0.2229
     12 N2         13.6170    -9.4369    82.7532 N.1        1          -0.3690
     13 C10         8.0378    -7.0274    88.2407 C.3        1           0.0246
     14 C11         7.4071    -5.6927    88.6443 C.3        1          -0.1637
     15 C12         6.0164    -5.9474    89.2339 C.3        1           0.1090
     16 N3          6.1387    -6.9140    90.3336 N.pl3      1          -0.6084
     17 C13         6.8109    -8.1950    90.0766 C.3        1           0.1195
     18 C14         8.1927    -7.9151    89.4776 C.3        1          -0.1665
     19 C15         5.6284    -6.6221    91.5935 C.ar       1           0.4617
     20 C16         6.2361    -7.1566    92.7221 C.ar       1          -0.2438
     21 C17         5.7146    -6.8552    93.9756 C.ar       1           0.3203
     22 N4          6.2953    -7.3710    95.1341 N.am       1          -0.6657
     23 C18         6.9195    -8.5650    95.1010 C.2        1           0.5747
     24 O1          6.9765    -9.1924    94.0614 O.2        1          -0.4904
     25 C19         7.5351    -9.1115    96.3286 C.ar       1          -0.1555
     26 C20         7.6722   -10.4916    96.4896 C.ar       1          -0.0490
     27 C21         8.2480   -10.9949    97.6375 C.ar       1          -0.0828
     28 C22         8.3969   -12.4843    97.8131 C.3        1          -0.1248
     29 C23         8.6896   -10.1354    98.6281 C.ar       1          -0.0736
     30 C24         8.5563    -8.7669    98.4751 C.ar       1          -0.1176
     31 C25         7.9871    -8.2500    97.3294 C.ar       1          -0.0905
     32 C26         4.5955    -6.0228    94.0458 C.ar       1          -0.1718
     33 C27         4.0485    -5.5312    92.8808 C.ar       1           0.1701
     34 N5          4.5704    -5.8322    91.7057 N.ar       1          -0.5165
     35 H2          4.1663    -5.4681    90.9026 H          1           0.4375
     36 H3          8.5688    -6.4307    85.7297 H          1           0.1260
     37 H4          8.7609    -4.9818    86.7455 H          1           0.1318
     38 H5         10.1895    -5.7519    86.0144 H          1           0.1284
     39 H6         10.0732    -8.6975    88.1363 H          1           0.1405
     40 H7          9.3222    -8.5637    86.5281 H          1           0.1442
     41 H8         11.9096    -6.4292    88.1589 H          1           0.1410
     42 H9         14.1236    -6.0117    87.1719 H          1           0.1515
     43 H10        14.7883    -7.1591    85.1001 H          1           0.1497
     44 H11        10.9944    -9.1592    85.0150 H          1           0.1399
     45 H12         7.3972    -7.5263    87.5135 H          1           0.1485
     46 H13         8.0347    -5.2045    89.3901 H          1           0.0986
     47 H14         7.3186    -5.0520    87.7670 H          1           0.1185
     48 H15         5.6036    -5.0126    89.6134 H          1           0.0956
     49 H16         5.3610    -6.3522    88.4627 H          1           0.1116
     50 H17         6.9223    -8.7432    91.0122 H          1           0.1169
     51 H18         6.2203    -8.7831    89.3742 H          1           0.1067
     52 H19         8.6635    -8.8563    89.1934 H          1           0.1182
     53 H20         8.8129    -7.4061    90.2154 H          1           0.0998
     54 H21         7.1005    -7.7971    92.6277 H          1           0.1810
     55 H22         6.2499    -6.8704    95.9637 H          1           0.4307
     56 H23         7.3280   -11.1634    95.7174 H          1           0.1410
     57 H24         8.8693   -12.6914    98.7733 H          1           0.0811
     58 H25         7.4135   -12.9537    97.7832 H          1           0.0764
     59 H26         9.0153   -12.8848    97.0099 H          1           0.0737
     60 H27         9.1400   -10.5347    99.5248 H          1           0.1380
     61 H28         8.9024    -8.1016    99.2522 H          1           0.1382
     62 H29         7.8877    -7.1814    97.2092 H          1           0.1232
     63 H30         4.1635    -5.7679    95.0022 H          1           0.1952
     64 H31         3.1826    -4.8874    92.9296 H          1           0.2156
@<TRIPOS>BOND
     1    1    2 1
     2    1   36 1
     3    1   37 1
     4    1   38 1
     5    2    3 1
     6    2    4 1
     7    2   13 1
     8    4    5 1
     9    4   39 1
    10    4   40 1
    11    5   10 ar
    12    5    6 ar
    13    6    7 ar
    14    6   41 1
    15    7    8 ar
    16    7   42 1
    17    8    9 ar
    18    8   43 1
    19    9   10 ar
    20    9   11 1
    21   10   44 1
    22   11   12 3
    23   13   18 1
    24   13   14 1
    25   13   45 1
    26   14   15 1
    27   14   46 1
    28   14   47 1
    29   15   16 1
    30   15   48 1
    31   15   49 1
    32   16   17 1
    33   16   19 1
    34   17   18 1
    35   17   50 1
    36   17   51 1
    37   18   52 1
    38   18   53 1
    39   19   34 ar
    40   19   20 ar
    41   20   21 ar
    42   20   54 1
    43   21   22 1
    44   21   32 ar
    45   22   23 am
    46   22   55 1
    47   23   24 2
    48   23   25 1
    49   25   31 ar
    50   25   26 ar
    51   26   27 ar
    52   26   56 1
    53   27   28 1
    54   27   29 ar
    55   28   57 1
    56   28   58 1
    57   28   59 1
    58   29   30 ar
    59   29   60 1
    60   30   31 ar
    61   30   61 1
    62   31   62 1
    63   32   33 ar
    64   32   63 1
    65   33   34 ar
    66   33   64 1
    67   34   35 1
##########                 Name:              T531518
##########          Protonation:                   99
##########               SMILES:   COc1c(c2c(cc1)cccc2)C[NH2+]C[C@H]3CC[NH+](CC3)CC4CCCCC4
##########            Long Name:   xylmethyl)piperidin-1-ium-4-yl]methyl-[(2-methoxy-1-naphthyl)methyl]ammonium
##########          FlexRecCode: 1
##########               Number:                  206
##########   Ligand Source File: /raidb/db2/rgc/tcams/tcams-0000870.db2.gz
##########           GlobalRank: 273
##########                 Rank:                    1
##########               Setnum:                  138
##########             Matchnum:                 4098
##########                Cloud:                    1
##########        Electrostatic:           -50.369862
##########        Van der Waals:           -23.594801
##########  Ligand Polar Desolv:            12.196939
########## Ligand Apolar Desolv:            -3.591214
##########      Internal Energy:             0.000000
##########      Receptor Energy: 0.0
########## Receptor Desolvation:             0.000000
########## Receptor Hydrophobic:             0.000000
##########         Total Energy: -65.36
##########        Ligand Charge:             2.000000
##########            Arbitrary:    +999.9990
##########     heavy atom count:   28
##########           pose count:    1
##########        Ligand Energy:             0.000000
# num electro vdwattr vdwrepu polsolv apolsol rdesolv rhydroe totalscore fullpol fullapo
#   1   -0.49   -0.84    0.09    0.13    0.01    0.00    0.00      -1.09    0.33    0.03
#   2    6.88   -0.57    0.01   -2.49    0.23    0.00    0.00       4.05   -9.15    0.83
#   3   -3.56   -0.75    0.03    1.37   -0.09    0.00    0.00      -3.00    4.74   -0.31
#   4    4.40   -1.30    0.11   -2.14   -0.19    0.00    0.00       0.88   -4.97   -0.43
#   5    0.09   -1.95    0.40   -1.11   -0.21    0.00    0.00      -2.78   -2.40   -0.46
#   6    0.94   -1.52    0.25   -1.02   -0.15    0.00    0.00      -1.50   -2.64   -0.40
#   7    0.63   -2.25    0.77   -1.27   -0.21    0.00    0.00      -2.33   -2.83   -0.46
#   8    1.06   -1.51    0.22   -1.18   -0.18    0.00    0.00      -1.59   -3.08   -0.47
#   9    0.53   -1.15    0.14   -1.08   -0.15    0.00    0.00      -1.71   -3.40   -0.47
#  10    1.50   -1.02    0.19   -0.68   -0.12    0.00    0.00      -0.14   -2.50   -0.44
#  11   -0.08   -1.07    0.24   -0.10   -0.11    0.00    0.00      -1.12   -0.36   -0.40
#  12    3.22   -0.71    0.06   -1.02   -0.08    0.00    0.00       1.47   -4.67   -0.37
#  13   -0.92   -0.34    0.02    0.62   -0.07    0.00    0.00      -0.69    3.32   -0.36
#  14   16.58   -1.14    0.55   -6.07    0.18    0.00    0.00      10.10  -24.76    0.73
#  15  -16.78   -0.03    0.00    5.33    0.11    0.00    0.00     -11.37   22.74    0.45
#  16  -16.44   -0.03    0.00    4.34    0.11    0.00    0.00     -12.01   22.25    0.57
#  17    0.57   -0.76    0.20   -0.27   -0.08    0.00    0.00      -0.34   -1.09   -0.33
#  18    2.13   -0.26    0.01   -0.73   -0.03    0.00    0.00       1.13   -5.19   -0.19
#  19    3.23   -0.43    0.04   -1.65   -0.05    0.00    0.00       1.15   -7.92   -0.22
#  20    0.47   -0.97    0.28   -0.28   -0.11    0.00    0.00      -0.61   -0.98   -0.37
#  21    7.71   -0.51    0.04   -3.58    0.05    0.00    0.00       3.72  -17.68    0.27
#  22   -5.74    0.00    0.00    1.04    0.02    0.00    0.00      -4.68   20.20    0.43
#  23    0.23   -0.68    0.10    0.28   -0.09    0.00    0.00      -0.15    0.93   -0.31
#  24    1.96   -0.53    0.04   -1.00   -0.04    0.00    0.00       0.44   -3.56   -0.14
#  25    3.00   -1.27    0.30   -1.66   -0.09    0.00    0.00       0.28   -3.99   -0.21
#  26    1.78   -1.13    0.24   -1.25   -0.10    0.00    0.00      -0.45   -3.14   -0.25
#  27    0.60   -0.55    0.07   -0.74   -0.07    0.00    0.00      -0.69   -2.78   -0.25
#  28    0.25   -0.23    0.00   -0.40   -0.03    0.00    0.00      -0.40   -2.97   -0.25
#  29    0.55   -0.27    0.01   -0.57   -0.04    0.00    0.00      -0.32   -3.27   -0.22
#  30    0.39   -0.35    0.02   -0.25   -0.06    0.00    0.00      -0.26   -1.32   -0.35
#  31    1.51   -0.17    0.00   -0.63   -0.02    0.00    0.00       0.69   -6.27   -0.24
#  32   -2.60   -0.21    0.01    1.19   -0.07    0.00    0.00      -1.67    4.94   -0.28
#  33   -2.23   -0.36    0.14    0.15   -0.08    0.00    0.00      -2.38    0.52   -0.27
#  34   -1.74   -0.49    0.24    0.62   -0.09    0.00    0.00      -1.47    1.79   -0.27
#  35   -3.78   -0.33    0.03    1.20   -0.09    0.00    0.00      -2.96    2.97   -0.22
#  36   -2.30   -0.75    0.56    0.68   -0.14    0.00    0.00      -1.96    1.40   -0.28
#  37   -1.49   -0.82    0.78    0.44   -0.13    0.00    0.00      -1.22    0.98   -0.28
#  38   -1.31   -0.31    0.05    0.31   -0.07    0.00    0.00      -1.33    1.23   -0.28
#  39   -1.17   -0.23    0.04    0.60   -0.05    0.00    0.00      -0.81    3.62   -0.28
#  40   -1.28   -0.13    0.01    1.16   -0.03    0.00    0.00      -0.27    9.66   -0.21
#  41   -1.34   -0.10    0.01    0.86   -0.02    0.00    0.00      -0.59    8.39   -0.21
#  42   -1.74   -0.07    0.00    0.55   -0.02    0.00    0.00      -1.28    8.83   -0.26
#  43   -2.77   -0.13    0.01    1.45   -0.04    0.00    0.00      -1.48    9.25   -0.28
#  44   -5.26   -0.67    0.58    2.84   -0.05    0.00    0.00      -2.56   10.51   -0.18
#  45   -1.28   -0.05    0.00    0.23   -0.01    0.00    0.00      -1.11    5.27   -0.28
#  46   -2.50   -0.17    0.02    1.17   -0.04    0.00    0.00      -1.53    6.42   -0.22
#  47   -1.53   -0.07    0.00    0.24   -0.02    0.00    0.00      -1.38    3.43   -0.28
#  48   -5.41   -1.02    1.58    3.46   -0.07    0.00    0.00      -1.47   10.40   -0.22
#  49   -3.55   -0.40    0.15    1.97   -0.08    0.00    0.00      -1.91    6.79   -0.28
#  50   -3.02   -0.15    0.01    1.49   -0.05    0.00    0.00      -1.72    8.78   -0.28
#  51   -4.66   -0.60    0.50    2.05   -0.09    0.00    0.00      -2.79    6.27   -0.28
#  52   -1.41   -0.16    0.01    0.79   -0.04    0.00    0.00      -0.80    4.85   -0.22
#  53   -2.70   -0.68    0.62    0.71   -0.11    0.00    0.00      -2.15    1.90   -0.28
#  54   -1.30   -0.83    0.64    2.29   -0.10    0.00    0.00       0.69    5.02   -0.22
#  55   -1.59   -0.84    0.99    0.12   -0.12    0.00    0.00      -1.44    0.28   -0.28
#  56   -0.55   -0.29    0.04    0.55   -0.09    0.00    0.00      -0.35    1.65   -0.28
#  57   -0.38   -0.33    0.15    0.13   -0.06    0.00    0.00      -0.51    0.58   -0.28
#  58   -0.09   -0.11    0.00   -0.06   -0.04    0.00    0.00      -0.29   -0.44   -0.28
#  59   -0.12   -0.04    0.00   -0.01   -0.01    0.00    0.00      -0.19   -0.13   -0.28
#  60   -0.18   -0.06    0.00    0.07   -0.01    0.00    0.00      -0.18    1.40   -0.28
#  61   -0.34   -0.04    0.00    0.13   -0.01    0.00    0.00      -0.27    3.01   -0.28
#  62   -0.64   -0.13    0.01    0.24   -0.04    0.00    0.00      -0.56    1.49   -0.28
#  63   -3.09   -0.24    0.04    1.95   -0.04    0.00    0.00      -1.39    9.98   -0.22
#  64   -1.54   -0.08    0.00    0.38   -0.02    0.00    0.00      -1.25    5.09   -0.21
#  65   -0.82   -0.02    0.00    0.09   -0.01    0.00    0.00      -0.76    3.01   -0.28
#  66   -0.86   -0.04    0.00    0.19   -0.01    0.00    0.00      -0.71    4.84   -0.28

@<TRIPOS>MOLECULE
          T531518        99
   66    69     0     0     0



@<TRIPOS>ATOM
      1 C1          0.9618    -4.9651    94.7401 C.3        1           0.0192
      2 O1          1.9924    -5.7264    94.1071 O.3        1          -0.3296
      3 C2          2.8881    -6.3469    94.9190 C.ar       1           0.1896
      4 C3          2.7635    -6.2225    96.3065 C.ar       1          -0.2142
      5 C4          3.6442    -6.8317    97.1447 C.ar       1          -0.0058
      6 C5          4.6958    -7.5988    96.6135 C.ar       1          -0.0899
      7 C6          5.6232    -8.2421    97.4507 C.ar       1          -0.0697
      8 C7          6.6291    -8.9771    96.9026 C.ar       1          -0.1249
      9 C8          6.7551    -9.1028    95.5203 C.ar       1          -0.0628
     10 C9          5.8760    -8.4941    94.6785 C.ar       1          -0.1623
     11 C10         4.8239    -7.7266    95.2077 C.ar       1           0.0082
     12 C11         3.8947    -7.0884    94.3697 C.ar       1          -0.2228
     13 C12         4.0110    -7.2173    92.8727 C.3        1           0.0583
     14 N1          4.8578    -6.1356    92.3524 N.4        1          -0.5108
     15 H1          4.4443    -5.2445    92.5821 H          1           0.4231
     16 H2          5.7754    -6.1975    92.7677 H          1           0.4316
     17 C13         4.9713    -6.2613    90.8931 C.3        1          -0.0204
     18 C14         5.5987    -7.6127    90.5450 C.3        1          -0.1273
     19 C15         6.9954    -7.7041    91.1663 C.3        1          -0.1589
     20 C16         7.8900    -6.6220    90.5580 C.3        1          -0.0168
     21 N2          7.9848    -6.8191    89.1066 N.4        1          -0.3843
     22 H3          8.3339    -7.7464    88.9162 H          1           0.4271
     23 C17         8.9045    -5.8249    88.5379 C.3        1          -0.0096
     24 C18        10.3483    -6.2792    88.7612 C.3        1          -0.1134
     25 C19        11.2860    -5.0762    88.6406 C.3        1          -0.1278
     26 C20        12.7298    -5.5305    88.8640 C.3        1          -0.1208
     27 C21        13.1040    -6.5763    87.8117 C.3        1          -0.1286
     28 C22        12.1664    -7.7793    87.9324 C.3        1          -0.1230
     29 C23        10.7226    -7.3250    87.7090 C.3        1          -0.1117
     30 C24         6.6597    -6.6616    88.4951 C.3        1          -0.0234
     31 C25         5.7176    -7.7453    89.0239 C.3        1          -0.1365
     32 H4          0.3172    -4.5238    93.9799 H          1           0.1113
     33 H5          0.3711    -5.6174    95.3832 H          1           0.0707
     34 H6          1.4111    -4.1735    95.3398 H          1           0.0677
     35 H7          1.9568    -5.6341    96.7180 H          1           0.1454
     36 H8          3.5362    -6.7264    98.2142 H          1           0.1476
     37 H9          5.5385    -8.1534    98.5237 H          1           0.1403
     38 H10         7.3405    -9.4701    97.5486 H          1           0.1372
     39 H11         7.5627    -9.6917    95.1111 H          1           0.1343
     40 H12         5.9862    -8.6000    93.6094 H          1           0.1206
     41 H13         4.4578    -8.1800    92.6245 H          1           0.1406
     42 H14         3.0197    -7.1504    92.4242 H          1           0.1397
     43 H15         3.9801    -6.1945    90.4445 H          1           0.1483
     44 H16         5.5997    -5.4588    90.5071 H          1           0.1270
     45 H17         4.9725    -8.4160    90.9331 H          1           0.1283
     46 H18         6.9249    -7.5549    92.2437 H          1           0.1080
     47 H19         7.4213    -8.6863    90.9613 H          1           0.1171
     48 H20         7.4634    -5.6404    90.7639 H          1           0.1253
     49 H21         8.8853    -6.6842    90.9984 H          1           0.1439
     50 H22         8.7163    -5.7253    87.4689 H          1           0.1318
     51 H23         8.7467    -4.8630    89.0257 H          1           0.1360
     52 H24        10.4425    -6.7148    89.7559 H          1           0.0943
     53 H25        11.1919    -4.6406    87.6458 H          1           0.0805
     54 H26        11.0194    -4.3311    89.3902 H          1           0.0528
     55 H27        13.3978    -4.6734    88.7780 H          1           0.0753
     56 H28        12.8238    -5.9661    89.8586 H          1           0.0671
     57 H29        13.0100    -6.1406    86.8170 H          1           0.0680
     58 H30        14.1326    -6.9000    87.9709 H          1           0.0745
     59 H31        12.4330    -8.5243    87.1828 H          1           0.0772
     60 H32        12.2604    -8.2149    88.9272 H          1           0.0669
     61 H33        10.0546    -8.1821    87.7950 H          1           0.0736
     62 H34        10.6286    -6.8894    86.7143 H          1           0.0758
     63 H35         6.2593    -5.6791    88.7449 H          1           0.1291
     64 H36         6.7466    -6.7530    87.4124 H          1           0.1454
     65 H37         6.1171    -8.7283    88.7745 H          1           0.1104
     66 H38         4.7339    -7.6256    88.5701 H          1           0.1264
@<TRIPOS>BOND
     1    1    2 1
     2    1   32 1
     3    1   33 1
     4    1   34 1
     5    2    3 1
     6    3   12 ar
     7    3    4 ar
     8    4    5 ar
     9    4   35 1
    10    5    6 ar
    11    5   36 1
    12    6   11 ar
    13    6    7 ar
    14    7    8 ar
    15    7   37 1
    16    8    9 ar
    17    8   38 1
    18    9   10 ar
    19    9   39 1
    20   10   11 ar
    21   10   40 1
    22   11   12 ar
    23   12   13 1
    24   13   14 1
    25   13   41 1
    26   13   42 1
    27   14   15 1
    28   14   16 1
    29   14   17 1
    30   17   18 1
    31   17   43 1
    32   17   44 1
    33   18   31 1
    34   18   19 1
    35   18   45 1
    36   19   20 1
    37   19   46 1
    38   19   47 1
    39   20   21 1
    40   20   48 1
    41   20   49 1
    42   21   22 1
    43   21   23 1
    44   21   30 1
    45   23   24 1
    46   23   50 1
    47   23   51 1
    48   24   29 1
    49   24   25 1
    50   24   52 1
    51   25   26 1
    52   25   53 1
    53   25   54 1
    54   26   27 1
    55   26   55 1
    56   26   56 1
    57   27   28 1
    58   27   57 1
    59   27   58 1
    60   28   29 1
    61   28   59 1
    62   28   60 1
    63   29   61 1
    64   29   62 1
    65   30   31 1
    66   30   63 1
    67   30   64 1
    68   31   65 1
    69   31   66 1
##########                 Name:              T540295
##########          Protonation:                   22
##########               SMILES:   C[C@@H](C[NH+]1CCN(CC1)C[C@H](c2ccc(cc2)F)N3CC[NH+](CC3)C)C(=O)c4ccc(cc4)O
##########            Long Name:   m-1-yl)ethyl]piperazin-1-ium-1-yl]-1-(4-hydroxyphenyl)-2-methyl-propan-1-one
##########          FlexRecCode: 1
##########               Number:                  204
##########   Ligand Source File: /raidb/db2/rgc/tcams/tcams-0002037.db2.gz
##########           GlobalRank: 273
##########                 Rank:                    1
##########               Setnum:                   52
##########             Matchnum:                 1716
##########                Cloud:                    1
##########        Electrostatic:           -48.794827
##########        Van der Waals:           -26.117939
##########  Ligand Polar Desolv:            11.532327
########## Ligand Apolar Desolv:            -1.984310
##########      Internal Energy:             0.000000
##########      Receptor Energy: 0.0
########## Receptor Desolvation:             0.000000
########## Receptor Hydrophobic:             0.000000
##########         Total Energy: -65.36
##########        Ligand Charge:             2.000000
##########            Arbitrary:    +999.9990
##########     heavy atom count:   34
##########           pose count:    1
##########        Ligand Energy:             0.000000
# num electro vdwattr vdwrepu polsolv apolsol rdesolv rhydroe totalscore fullpol fullapo
#   1    0.90   -0.29    0.03   -0.82   -0.03    0.00    0.00      -0.20   -5.83   -0.18
#   2    0.86   -0.19    0.00   -0.54   -0.02    0.00    0.00       0.12   -4.58   -0.14
#   3    0.11   -0.26    0.01    0.06   -0.03    0.00    0.00      -0.12    0.37   -0.22
#   4    5.29   -0.37    0.02   -2.64    0.08    0.00    0.00       2.37  -14.78    0.43
#   5   -3.47   -0.01    0.00    2.50    0.05    0.00    0.00      -0.92   20.05    0.43
#   6    0.31   -0.81    0.22   -0.08   -0.10    0.00    0.00      -0.46   -0.32   -0.41
#   7   -0.67   -0.57    0.06    0.19   -0.10    0.00    0.00      -1.08    0.78   -0.39
#   8    6.02   -0.41    0.01   -3.37    0.49    0.00    0.00       2.74  -20.36    2.95
#   9   -0.49   -0.47    0.07    0.42   -0.06    0.00    0.00      -0.52    2.28   -0.31
#  10   -1.37   -0.61    0.13    1.16   -0.04    0.00    0.00      -0.73    5.13   -0.17
#  11    1.50   -2.22    2.54   -6.71    0.88    0.00    0.00      -4.00  -19.62    2.58
#  12   -0.19   -0.64    0.08    0.18   -0.12    0.00    0.00      -0.70    0.56   -0.37
#  13    0.06   -0.51    0.02    0.06   -0.12    0.00    0.00      -0.48    0.22   -0.43
#  14   11.40   -1.50    0.65   -6.33    0.25    0.00    0.00       4.47  -14.58    0.57
#  15  -18.03   -0.09    0.02    7.12    0.20    0.00    0.00     -10.78   19.69    0.56
#  16    1.65   -2.04    1.57   -1.13   -0.22    0.00    0.00      -0.16   -2.36   -0.45
#  17    0.10   -1.01    0.11    0.21   -0.20    0.00    0.00      -0.78    0.45   -0.43
#  18   -0.30   -1.32    0.34    0.27   -0.17    0.00    0.00      -1.18    0.59   -0.37
#  19    0.97   -1.15    0.31   -0.27   -0.07    0.00    0.00      -0.20   -0.94   -0.24
#  20    1.08   -1.13    0.09   -0.47   -0.15    0.00    0.00      -0.58   -1.25   -0.39
#  21    2.31   -1.39    0.17   -1.68   -0.20    0.00    0.00      -0.80   -3.86   -0.47
#  22   -1.39   -1.27    0.11   -0.11   -0.13    0.00    0.00      -2.79   -0.29   -0.34
#  23    1.80   -0.77    0.07   -1.23   -0.23    0.00    0.00      -0.37   -2.59   -0.48
#  24    1.10   -1.23    0.16   -1.26   -0.16    0.00    0.00      -1.39   -3.83   -0.47
#  25    0.26   -1.78    1.23   -0.35   -0.13    0.00    0.00      -0.77   -1.21   -0.46
#  26   -0.10   -0.18    0.00    0.04   -0.04    0.00    0.00      -0.28    0.35   -0.37
#  27    0.02   -0.14    0.00    0.01   -0.04    0.00    0.00      -0.15    0.13   -0.42
#  28   -1.25   -0.71    0.09    2.20   -0.05    0.00    0.00       0.26   10.93   -0.27
#  29    1.48   -1.86    0.91   -3.31    0.11    0.00    0.00      -2.67  -11.08    0.38
#  30    0.50   -0.75    0.07   -1.06   -0.10    0.00    0.00      -1.34   -4.38   -0.41
#  31    0.18   -1.21    0.17   -0.13   -0.16    0.00    0.00      -1.15   -0.36   -0.44
#  32    0.44   -1.61    0.25   -1.52   -0.20    0.00    0.00      -2.64   -3.51   -0.46
#  33   -0.33   -1.84    0.66    0.53   -0.12    0.00    0.00      -1.11    1.32   -0.31
#  34    0.86   -3.26    2.02   -3.33    0.53    0.00    0.00      -3.17   -7.25    1.16
#  35    0.26   -1.36    0.72   -0.77   -0.12    0.00    0.00      -1.27   -3.01   -0.46
#  36    0.06   -0.63    0.05   -0.28   -0.09    0.00    0.00      -0.89   -1.38   -0.45
#  37   -0.29   -0.16    0.05    0.14   -0.03    0.00    0.00      -0.29    1.27   -0.28
#  38   -0.80   -0.11    0.01    0.15   -0.03    0.00    0.00      -0.79    1.39   -0.28
#  39   -0.37   -0.04    0.00    0.34   -0.01    0.00    0.00      -0.09    5.88   -0.22
#  40   -0.39   -0.03    0.00    0.23    0.00    0.00    0.00      -0.19    7.08   -0.15
#  41   -1.86   -0.04    0.00    0.24   -0.01    0.00    0.00      -1.68    5.37   -0.27
#  42   -2.91   -0.16    0.01    0.91   -0.02    0.00    0.00      -2.17    5.62   -0.15
#  43   -3.94   -0.18    0.04    1.01   -0.03    0.00    0.00      -3.11    7.06   -0.22
#  44   -6.65   -0.88    1.08    1.87   -0.09    0.00    0.00      -4.66    6.12   -0.28
#  45   -1.90   -0.21    0.02    0.54   -0.04    0.00    0.00      -1.59    2.75   -0.22
#  46   -2.27   -0.25    0.06    0.68   -0.06    0.00    0.00      -1.84    3.24   -0.28
#  47    0.11   -0.35    0.19    0.58   -0.04    0.00    0.00       0.49    3.21   -0.21
#  48   -1.44   -0.09    0.00    0.19   -0.02    0.00    0.00      -1.37    2.22   -0.27
#  49   -1.21   -0.11    0.00    0.34   -0.02    0.00    0.00      -1.00    3.59   -0.22
#  50   -0.34   -0.13    0.01    0.43   -0.03    0.00    0.00      -0.06    3.48   -0.22
#  51   -1.54   -0.28    0.03    1.48   -0.07    0.00    0.00      -0.38    4.53   -0.21
#  52   -2.75   -0.11    0.00    0.70   -0.03    0.00    0.00      -2.18    6.77   -0.28
#  53   -2.85   -0.15    0.01    0.86   -0.04    0.00    0.00      -2.18    5.35   -0.28
#  54   -3.81   -1.27    2.84    2.94   -0.15    0.00    0.00       0.54    5.45   -0.28
#  55   -3.24   -0.66    0.55    1.70   -0.10    0.00    0.00      -1.75    4.67   -0.28
#  56   -3.33   -0.44    0.12    1.66   -0.05    0.00    0.00      -2.05    4.56   -0.15
#  57   -3.31   -0.23    0.01    1.38   -0.07    0.00    0.00      -2.21    5.58   -0.28
#  58   -3.69   -0.53    0.18    2.49   -0.14    0.00    0.00      -1.69    5.04   -0.28
#  59   -1.77   -0.57    0.16    0.98   -0.11    0.00    0.00      -1.30    1.94   -0.21
#  60   -0.52   -0.51    0.20    1.10   -0.08    0.00    0.00       0.19    3.00   -0.22
#  61   -2.80   -0.27    0.03    1.24   -0.07    0.00    0.00      -1.87    4.62   -0.27
#  62   -2.19   -0.47    0.29    0.58   -0.10    0.00    0.00      -1.90    1.56   -0.28
#  63   -0.84   -0.20    0.01    0.46   -0.06    0.00    0.00      -0.62    2.31   -0.28
#  64    0.23   -0.56    0.56    1.30   -0.06    0.00    0.00       1.47    6.18   -0.28
#  65   -0.07   -0.07    0.00    0.21   -0.02    0.00    0.00       0.06    2.86   -0.21
#  66   -0.46   -0.05    0.00    0.22   -0.01    0.00    0.00      -0.30    4.79   -0.22
#  67   -0.47   -0.02    0.00    0.20   -0.01    0.00    0.00      -0.31    6.45   -0.28
#  68   -0.98   -0.05    0.00    0.29   -0.01    0.00    0.00      -0.74    6.90   -0.28
#  69   -0.54   -0.32    0.08    1.82   -0.05    0.00    0.00       0.98    7.46   -0.22
#  70   -0.46   -0.52    0.14    1.45   -0.13    0.00    0.00       0.48    3.22   -0.28
#  71   -0.59   -0.07    0.00    2.94    0.48    0.00    0.00       2.75    7.53    1.22
#  72   -0.21   -0.35    0.29    0.21   -0.05    0.00    0.00      -0.10    1.24   -0.28
#  73   -0.22   -0.07    0.00    0.12   -0.02    0.00    0.00      -0.18    1.78   -0.27

@<TRIPOS>MOLECULE
          T540295        22
   73    76     0     0     0



@<TRIPOS>ATOM
      1 C1          6.6345    -7.6200    86.7284 C.3        1          -0.1642
      2 C2          5.3569    -7.4224    87.5467 C.3        1          -0.1626
      3 C3          5.7246    -7.0957    88.9955 C.3        1          -0.0079
      4 N1          4.4978    -6.9059    89.7811 N.4        1          -0.3845
      5 H1          3.8217    -6.3981    89.2306 H          1           0.4303
      6 C4          4.8092    -6.1443    90.9979 C.3        1          -0.0108
      7 C5          3.5291    -5.9332    91.8094 C.3        1           0.0294
      8 N2          2.9584    -7.2405    92.1631 N.3        1          -0.5287
      9 C6          3.8565    -7.9822    93.0581 C.3        1           0.0599
     10 C7          3.6915    -7.4656    94.4888 C.3        1           0.1396
     11 N3          2.4930    -8.0649    95.0906 N.3        1          -0.5316
     12 C8          1.3007    -7.7881    94.2773 C.3        1           0.0187
     13 C9          1.0300    -6.2821    94.2742 C.3        1          -0.0032
     14 N4          0.8203    -5.8194    95.6524 N.4        1          -0.3856
     15 H2          0.0352    -6.3088    96.0553 H          1           0.4346
     16 C10         0.5464    -4.3761    95.6475 C.3        1          -0.0577
     17 C11         2.0245    -6.0858    96.4503 C.3        1          -0.0042
     18 C12         2.3020    -7.5905    96.4682 C.3        1           0.0251
     19 C13         4.9035    -7.8419    95.3017 C.ar       1          -0.1016
     20 C14         5.3060    -7.0398    96.3532 C.ar       1          -0.0682
     21 C15         6.4172    -7.3839    97.0993 C.ar       1          -0.1547
     22 C16         7.1272    -8.5327    96.7936 C.ar       1           0.1162
     23 F1          8.2134    -8.8702    97.5226 F          1          -0.1306
     24 C17         6.7227    -9.3354    95.7405 C.ar       1          -0.1541
     25 C18         5.6084    -8.9919    94.9987 C.ar       1          -0.0683
     26 C19         2.6586    -8.0195    90.9537 C.3        1           0.0195
     27 C20         3.9447    -8.2162    90.1483 C.3        1          -0.0024
     28 C21         4.5573    -6.2862    86.9629 C.2        1           0.4149
     29 O1          4.3061    -5.3111    87.6391 O.2        1          -0.4399
     30 C22         4.0822    -6.3596    85.5752 C.ar       1          -0.2013
     31 C23         4.8807    -5.8742    84.5324 C.ar       1          -0.0562
     32 C24         4.4324    -5.9452    83.2386 C.ar       1          -0.1592
     33 C25         3.1864    -6.4982    82.9611 C.ar       1           0.1644
     34 O2          2.7470    -6.5661    81.6793 O.3        1          -0.4930
     35 C26         2.3897    -6.9818    83.9930 C.ar       1          -0.1571
     36 C27         2.8313    -6.9208    85.2897 C.ar       1          -0.0321
     37 H3          6.3727    -7.8528    85.6963 H          1           0.0944
     38 H4          7.2284    -6.7064    86.7555 H          1           0.0832
     39 H5          7.2130    -8.4418    87.1507 H          1           0.0685
     40 H6          4.7632    -8.3360    87.5197 H          1           0.1187
     41 H7          6.3030    -7.9172    89.4177 H          1           0.1443
     42 H8          6.3183    -6.1819    89.0224 H          1           0.1304
     43 H9          5.5325    -6.6970    91.5973 H          1           0.1383
     44 H10         5.2290    -5.1766    90.7233 H          1           0.1455
     45 H11         3.7619    -5.3796    92.7189 H          1           0.0624
     46 H12         2.8097    -5.3707    91.2145 H          1           0.1270
     47 H13         3.6085    -9.0431    93.0241 H          1           0.0524
     48 H14         4.8883    -7.8398    92.7371 H          1           0.1033
     49 H15         3.5869    -6.3807    94.4736 H          1           0.0612
     50 H16         1.4697    -8.1296    93.2560 H          1           0.0633
     51 H17         0.4427    -8.3115    94.6991 H          1           0.1220
     52 H18         1.8838    -5.7603    93.8418 H          1           0.1378
     53 H19         0.1391    -6.0743    93.6816 H          1           0.1410
     54 H20         0.3907    -4.0323    96.6700 H          1           0.1272
     55 H21         1.3937    -3.8470    95.2113 H          1           0.1286
     56 H22        -0.3484    -4.1781    95.0575 H          1           0.1167
     57 H23         2.8746    -5.5648    96.0099 H          1           0.1397
     58 H24         1.8702    -5.7326    97.4699 H          1           0.1413
     59 H25         1.4571    -8.1111    96.9189 H          1           0.1275
     60 H26         3.2031    -7.7875    97.0492 H          1           0.0646
     61 H27         4.7521    -6.1439    96.5915 H          1           0.1369
     62 H28         6.7320    -6.7568    97.9204 H          1           0.1392
     63 H29         7.2759   -10.2316    95.5009 H          1           0.1382
     64 H30         5.2903    -9.6201    94.1799 H          1           0.1241
     65 H31         2.2547    -8.9913    91.2377 H          1           0.0636
     66 H32         1.9276    -7.4842    90.3477 H          1           0.1186
     67 H33         3.7239    -8.7837    89.2443 H          1           0.1434
     68 H34         4.6713    -8.7611    90.7510 H          1           0.1391
     69 H35         5.8480    -5.4442    84.7470 H          1           0.1316
     70 H36         5.0475    -5.5710    82.4336 H          1           0.1423
     71 H37         1.8718    -6.9643    81.5840 H          1           0.4056
     72 H38         1.4232    -7.4103    83.7721 H          1           0.1440
     73 H39         2.2134    -7.3007    86.0900 H          1           0.1412
@<TRIPOS>BOND
     1    1    2 1
     2    1   37 1
     3    1   38 1
     4    1   39 1
     5    2    3 1
     6    2   28 1
     7    2   40 1
     8    3    4 1
     9    3   41 1
    10    3   42 1
    11    4    5 1
    12    4   27 1
    13    4    6 1
    14    6    7 1
    15    6   43 1
    16    6   44 1
    17    7    8 1
    18    7   45 1
    19    7   46 1
    20    8    9 1
    21    8   26 1
    22    9   10 1
    23    9   47 1
    24    9   48 1
    25   10   11 1
    26   10   19 1
    27   10   49 1
    28   11   18 1
    29   11   12 1
    30   12   13 1
    31   12   50 1
    32   12   51 1
    33   13   14 1
    34   13   52 1
    35   13   53 1
    36   14   15 1
    37   14   16 1
    38   14   17 1
    39   16   54 1
    40   16   55 1
    41   16   56 1
    42   17   18 1
    43   17   57 1
    44   17   58 1
    45   18   59 1
    46   18   60 1
    47   19   25 ar
    48   19   20 ar
    49   20   21 ar
    50   20   61 1
    51   21   22 ar
    52   21   62 1
    53   22   23 1
    54   22   24 ar
    55   24   25 ar
    56   24   63 1
    57   25   64 1
    58   26   27 1
    59   26   65 1
    60   26   66 1
    61   27   67 1
    62   27   68 1
    63   28   29 2
    64   28   30 1
    65   30   36 ar
    66   30   31 ar
    67   31   32 ar
    68   31   69 1
    69   32   33 ar
    70   32   70 1
    71   33   34 1
    72   33   35 ar
    73   34   71 1
    74   35   36 ar
    75   35   72 1
    76   36   73 1
##########                 Name:              T532939
##########          Protonation:                  100
##########               SMILES:   C[C@H]([C@@H]1CCCc2c1ccc(c2)OC)[NH2+]C[C@@H](c3cccc(c3)C(F)(F)F)O
##########            Long Name:   uoromethyl)phenyl]ethyl]-[(1R)-1-[(1R)-6-methoxytetralin-1-yl]ethyl]ammonium
##########          FlexRecCode: 1
##########               Number:                   17
##########   Ligand Source File: /raidb/db2/rgc/tcams/tcams-0001011.db2.gz
##########           GlobalRank: 275
##########                 Rank:                    1
##########               Setnum:                   98
##########             Matchnum:                  918
##########                Cloud:                    1
##########        Electrostatic:           -44.877914
##########        Van der Waals:           -23.982000
##########  Ligand Polar Desolv:             5.771426
########## Ligand Apolar Desolv:            -2.256632
##########      Internal Energy:             0.000000
##########      Receptor Energy: 0.0
########## Receptor Desolvation:             0.000000
########## Receptor Hydrophobic:             0.000000
##########         Total Energy: -65.35
##########        Ligand Charge:             1.000000
##########            Arbitrary:    +999.9990
##########     heavy atom count:   28
##########           pose count:    1
##########        Ligand Energy:             0.000000
# num electro vdwattr vdwrepu polsolv apolsol rdesolv rhydroe totalscore fullpol fullapo
#   1   -0.21   -1.33    0.20    0.11    0.02    0.00    0.00      -1.22    0.19    0.03
#   2    2.31   -1.28    0.13   -1.48    0.51    0.00    0.00       0.18   -2.72    0.93
#   3   -0.98   -1.48    0.22    0.25   -0.13    0.00    0.00      -2.11    0.62   -0.31
#   4    1.56   -1.52    0.25   -0.93   -0.18    0.00    0.00      -0.83   -2.29   -0.45
#   5    0.18   -1.25    0.11   -0.15   -0.15    0.00    0.00      -1.26   -0.39   -0.40
#   6    1.25   -1.23    0.22   -0.76   -0.10    0.00    0.00      -0.61   -2.38   -0.30
#   7    0.10   -2.28    1.62   -0.42   -0.14    0.00    0.00      -1.13   -1.30   -0.42
#   8    0.54   -1.80    0.42   -1.26   -0.15    0.00    0.00      -2.25   -3.44   -0.42
#   9    0.67   -0.57    0.06   -0.32   -0.04    0.00    0.00      -0.19   -1.17   -0.14
#  10    2.61   -0.64    0.04   -1.11   -0.07    0.00    0.00       0.84   -3.18   -0.19
#  11    2.71   -1.18    0.41   -1.02   -0.11    0.00    0.00       0.81   -2.32   -0.25
#  12    1.52   -1.10    0.23   -0.68   -0.11    0.00    0.00      -0.14   -1.45   -0.24
#  13   -0.60   -0.57    0.06    0.54   -0.05    0.00    0.00      -0.63    2.09   -0.19
#  14    2.45   -0.35    0.02   -1.24   -0.04    0.00    0.00       0.84   -6.04   -0.18
#  15   19.28   -1.88    2.65   -4.66    0.15    0.00    0.00      15.53  -16.82    0.55
#  16  -19.17   -0.05    0.00    3.71    0.09    0.00    0.00     -15.40   15.71    0.40
#  17  -21.87   -0.10    0.03    3.82    0.13    0.00    0.00     -18.00   14.55    0.48
#  18    1.30   -0.56    0.08   -0.23   -0.08    0.00    0.00       0.50   -0.98   -0.36
#  19   -4.77   -1.48    0.61    1.39   -0.05    0.00    0.00      -4.30    4.06   -0.15
#  20   26.64   -4.06    3.55   -7.44    0.77    0.00    0.00      19.46  -15.55    1.61
#  21    2.86   -1.78    0.82   -0.72   -0.11    0.00    0.00       1.07   -2.29   -0.34
#  22    1.71   -1.63    0.35   -0.46   -0.16    0.00    0.00      -0.19   -1.25   -0.44
#  23    2.46   -1.44    0.18   -0.88   -0.19    0.00    0.00       0.13   -2.22   -0.47
#  24    1.01   -1.12    0.11   -0.53   -0.16    0.00    0.00      -0.70   -1.45   -0.44
#  25    1.73   -1.20    0.39   -0.76   -0.11    0.00    0.00       0.06   -2.62   -0.37
#  26    0.50   -1.89    1.81   -0.31   -0.11    0.00    0.00      -0.01   -1.22   -0.44
#  27   -2.58   -0.65    0.09    1.14   -0.02    0.00    0.00      -2.02    3.75   -0.07
#  28    1.97   -1.02    0.34   -0.40   -0.16    0.00    0.00       0.74   -1.11   -0.44
#  29    0.17   -0.95    0.31   -0.45   -0.17    0.00    0.00      -1.09   -1.29   -0.48
#  30    0.31   -0.24    0.01   -0.31   -0.10    0.00    0.00      -0.34   -1.48   -0.48
#  31   -0.49   -0.62    0.22    0.42   -0.14    0.00    0.00      -0.62    0.76   -0.26
#  32   -0.39   -0.65    0.45    0.61   -0.13    0.00    0.00      -0.12    1.18   -0.26
#  33   -1.35   -0.34    0.06    0.35   -0.11    0.00    0.00      -1.39    0.92   -0.28
#  34   -1.92   -0.31    0.04    0.11   -0.09    0.00    0.00      -2.16    0.36   -0.28
#  35    0.41   -0.78    0.96    1.41   -0.05    0.00    0.00       1.95    5.68   -0.22
#  36   -0.37   -0.42    0.11    0.71   -0.06    0.00    0.00      -0.03    2.32   -0.21
#  37   -0.49   -0.28    0.14    0.52   -0.05    0.00    0.00      -0.16    3.02   -0.28
#  38   -1.55   -0.17    0.01    0.52   -0.04    0.00    0.00      -1.24    3.24   -0.23
#  39   -1.43   -0.22    0.01    0.85   -0.06    0.00    0.00      -0.84    3.20   -0.24
#  40   -2.32   -0.34    0.05    0.41   -0.11    0.00    0.00      -2.31    1.09   -0.28
#  41   -1.81   -1.13    3.17    0.27   -0.12    0.00    0.00       0.38    0.61   -0.28
#  42   -1.31   -0.42    0.11    0.06   -0.11    0.00    0.00      -1.66    0.15   -0.28
#  43   -1.56   -0.43    0.09    0.64   -0.11    0.00    0.00      -1.37    1.67   -0.28
#  44   -3.40   -0.34    0.13    1.41   -0.05    0.00    0.00      -2.26    6.08   -0.22
#  45   -1.38   -0.08    0.00    0.33   -0.02    0.00    0.00      -1.15    3.78   -0.21
#  46   -0.85   -0.12    0.01    0.26   -0.03    0.00    0.00      -0.73    2.21   -0.28
#  47   -0.79   -0.09    0.01    0.29   -0.02    0.00    0.00      -0.61    3.10   -0.23
#  48   -2.72   -0.09    0.00    0.52   -0.02    0.00    0.00      -2.31    6.16   -0.28
#  49   -2.86   -0.10    0.00    0.65   -0.02    0.00    0.00      -2.33    6.72   -0.21
#  50   -5.22   -0.67    0.44    1.32   -0.09    0.00    0.00      -4.22    3.94   -0.28
#  51  -26.97   -0.26    0.14    6.20    0.48    0.00    0.00     -20.40   12.80    1.00
#  52   -3.64   -0.40    0.08    1.82   -0.07    0.00    0.00      -2.21    5.71   -0.23
#  53   -3.82   -0.44    0.15    0.91   -0.10    0.00    0.00      -3.30    2.57   -0.28
#  54   -3.46   -0.28    0.06    0.21   -0.06    0.00    0.00      -3.51    0.91   -0.25
#  55   -0.88   -0.28    0.15    0.54   -0.05    0.00    0.00      -0.52    3.16   -0.28

@<TRIPOS>MOLECULE
          T532939       100
   55    57     0     0     0



@<TRIPOS>ATOM
      1 C1          8.2996   -13.0945    96.9419 C.3        1           0.0235
      2 O1          8.3559   -11.7818    97.5039 O.3        1          -0.3102
      3 C2          7.6394   -10.8114    96.8781 C.ar       1           0.1513
      4 C3          7.6520    -9.5143    97.3643 C.ar       1          -0.1523
      5 C4          6.9237    -8.5205    96.7286 C.ar       1          -0.0154
      6 C5          6.1847    -8.8243    95.6051 C.ar       1          -0.1648
      7 C6          6.1701   -10.1238    95.1187 C.ar       1          -0.0909
      8 C7          6.8968   -11.1142    95.7461 C.ar       1          -0.2053
      9 C8          5.3843    -7.7796    94.8715 C.3        1          -0.0530
     10 C9          5.1455    -6.5460    95.7405 C.3        1          -0.1297
     11 C10         6.5047    -6.0893    96.2808 C.3        1          -0.1187
     12 C11         6.9681    -7.1276    97.3013 C.3        1          -0.0931
     13 C12         6.1417    -7.3637    93.6089 C.3        1           0.0275
     14 C13         5.9168    -8.4067    92.5124 C.3        1          -0.1846
     15 N1          5.6498    -6.0575    93.1507 N.4        1          -0.5034
     16 H1          5.7982    -5.3698    93.8739 H          1           0.4283
     17 H2          6.1494    -5.7833    92.3181 H          1           0.4288
     18 C14         4.2145    -6.1521    92.8520 C.3        1          -0.0482
     19 C15         3.7024    -4.7917    92.3748 C.3        1           0.1365
     20 O2          4.3058    -3.7558    93.1527 O.3        1          -0.5434
     21 C16         2.2052    -4.7338    92.5364 C.ar       1          -0.1415
     22 C17         1.6547    -4.2680    93.7160 C.ar       1          -0.0746
     23 C18         0.2816    -4.2149    93.8641 C.ar       1          -0.1081
     24 C19        -0.5415    -4.6279    92.8329 C.ar       1          -0.0527
     25 C20         0.0089    -5.0919    91.6530 C.ar       1          -0.1724
     26 C21         1.3823    -5.1409    91.5031 C.ar       1          -0.0523
     27 C22        -0.8884    -5.5416    90.5287 C.3        1           0.5064
     28 F1         -2.2257    -5.3959    90.9126 F          1          -0.1707
     29 F2         -0.6412    -4.7612    89.3942 F          1          -0.1718
     30 F3         -0.6310    -6.8852    90.2357 F          1          -0.1745
     31 H3          8.9141   -13.7708    97.5361 H          1           0.0604
     32 H4          7.2679   -13.4459    96.9422 H          1           0.0587
     33 H5          8.6740   -13.0680    95.9185 H          1           0.1091
     34 H6          8.2320    -9.2759    98.2436 H          1           0.1385
     35 H7          5.5883   -10.3607    94.2400 H          1           0.1248
     36 H8          6.8847   -12.1225    95.3597 H          1           0.1359
     37 H9          4.4227    -8.2044    94.5833 H          1           0.1252
     38 H10         4.7007    -5.7520    95.1406 H          1           0.0583
     39 H11         4.4848    -6.8001    96.5694 H          1           0.0886
     40 H12         7.2246    -6.0264    95.4648 H          1           0.0828
     41 H13         6.4030    -5.1170    96.7629 H          1           0.0769
     42 H14         6.3205    -7.0810    98.1768 H          1           0.0892
     43 H15         7.9898    -6.8988    97.6042 H          1           0.0856
     44 H16         7.2066    -7.2935    93.8307 H          1           0.1417
     45 H17         6.4564    -8.1104    91.6129 H          1           0.0816
     46 H18         6.2817    -9.3759    92.8525 H          1           0.1092
     47 H19         4.8518    -8.4769    92.2907 H          1           0.0863
     48 H20         4.0542    -6.8951    92.0708 H          1           0.1451
     49 H21         3.6750    -6.4483    93.7515 H          1           0.1409
     50 H22         3.9601    -4.6543    91.3246 H          1           0.1341
     51 H23         5.2708    -3.7331    93.0964 H          1           0.3882
     52 H24         2.2976    -3.9460    94.5218 H          1           0.1342
     53 H25        -0.1485    -3.8518    94.7859 H          1           0.1464
     54 H26        -1.6144    -4.5856    92.9484 H          1           0.1488
     55 H27         1.8123    -5.5005    90.5800 H          1           0.1392
@<TRIPOS>BOND
     1    1    2 1
     2    1   31 1
     3    1   32 1
     4    1   33 1
     5    2    3 1
     6    3    8 ar
     7    3    4 ar
     8    4    5 ar
     9    4   34 1
    10    5   12 1
    11    5    6 ar
    12    6    7 ar
    13    6    9 1
    14    7    8 ar
    15    7   35 1
    16    8   36 1
    17    9   10 1
    18    9   13 1
    19    9   37 1
    20   10   11 1
    21   10   38 1
    22   10   39 1
    23   11   12 1
    24   11   40 1
    25   11   41 1
    26   12   42 1
    27   12   43 1
    28   13   14 1
    29   13   15 1
    30   13   44 1
    31   14   45 1
    32   14   46 1
    33   14   47 1
    34   15   16 1
    35   15   17 1
    36   15   18 1
    37   18   19 1
    38   18   48 1
    39   18   49 1
    40   19   20 1
    41   19   21 1
    42   19   50 1
    43   20   51 1
    44   21   26 ar
    45   21   22 ar
    46   22   23 ar
    47   22   52 1
    48   23   24 ar
    49   23   53 1
    50   24   25 ar
    51   24   54 1
    52   25   26 ar
    53   25   27 1
    54   26   55 1
    55   27   28 1
    56   27   29 1
    57   27   30 1
##########                 Name:              T537130
##########          Protonation:                   50
##########               SMILES:   c1ccc(cc1)C[NH+]2CC[C@@H](CC2)[NH2+]Cc3cc(ccc3)c4c5c(cnc4)cccc5
##########            Long Name:   (1-benzylpiperidin-1-ium-4-yl)-[[3-(4-isoquinolyl)phenyl]methyl]ammonium
##########          FlexRecCode: 1
##########               Number:                  108
##########   Ligand Source File: /raidb/db2/rgc/tcams/tcams-0001636.db2.gz
##########           GlobalRank: 275
##########                 Rank:                    1
##########               Setnum:                  116
##########             Matchnum:                  763
##########                Cloud:                    1
##########        Electrostatic:           -32.226131
##########        Van der Waals:           -30.266775
##########  Ligand Polar Desolv:             2.206217
########## Ligand Apolar Desolv:            -5.059377
##########      Internal Energy:             0.000000
##########      Receptor Energy: 0.0
########## Receptor Desolvation:             0.000000
########## Receptor Hydrophobic:             0.000000
##########         Total Energy: -65.35
##########        Ligand Charge:             2.000000
##########            Arbitrary:    +999.9990
##########     heavy atom count:   31
##########           pose count:    1
##########        Ligand Energy:             0.000000
# num electro vdwattr vdwrepu polsolv apolsol rdesolv rhydroe totalscore fullpol fullapo
#   1   -0.31   -0.32    0.02    0.55   -0.07    0.00    0.00      -0.13    3.19   -0.40
#   2    5.27   -0.23    0.01   -3.29    0.07    0.00    0.00       1.83  -27.52    0.60
#   3   -3.68    0.00    0.00    0.86    0.02    0.00    0.00      -2.80   25.56    0.56
#   4   -2.95    0.00    0.00    1.17    0.02    0.00    0.00      -1.77   26.43    0.34
#   5   -0.31   -0.42    0.04    0.58   -0.05    0.00    0.00      -0.16    2.89   -0.27
#   6    4.13   -0.58    0.10   -2.07   -0.05    0.00    0.00       1.52   -9.29   -0.22
#   7    0.34   -0.31    0.01   -0.28   -0.06    0.00    0.00      -0.30   -1.70   -0.37
#   8    6.91   -0.46    0.03   -3.73    0.05    0.00    0.00       2.80  -19.14    0.27
#   9  -11.82   -0.02    0.00    4.62    0.11    0.00    0.00      -7.11   22.80    0.54
#  10   -0.47   -0.37    0.03    0.59   -0.07    0.00    0.00      -0.29    3.12   -0.36
#  11    1.16   -1.18    0.20   -1.13   -0.10    0.00    0.00      -1.03   -3.80   -0.33
#  12    0.35   -1.18    0.18   -0.93   -0.13    0.00    0.00      -1.71   -3.12   -0.45
#  13    0.41   -2.49    1.31   -1.95   -0.20    0.00    0.00      -2.93   -4.49   -0.47
#  14    0.37   -2.88    1.04   -1.99   -0.23    0.00    0.00      -3.69   -4.00   -0.47
#  15    2.29   -2.82    1.36   -2.29   -0.24    0.00    0.00      -1.71   -4.52   -0.47
#  16    2.28   -1.92    0.60   -1.05   -0.15    0.00    0.00      -0.24   -2.58   -0.36
#  17    0.51   -0.26    0.01   -0.38   -0.05    0.00    0.00      -0.17   -2.48   -0.33
#  18    3.75   -0.62    0.09   -1.98   -0.06    0.00    0.00       1.18   -8.04   -0.24
#  19    1.15   -0.91    0.18   -0.87   -0.08    0.00    0.00      -0.53   -3.91   -0.37
#  20    0.14   -1.64    1.12   -0.41   -0.09    0.00    0.00      -0.89   -1.93   -0.45
#  21   -0.22   -2.93    6.23   -1.18   -0.12    0.00    0.00       1.78   -4.69   -0.47
#  22    0.33   -1.91    1.50   -1.10   -0.11    0.00    0.00      -1.28   -3.56   -0.35
#  23    0.11   -1.13    0.16   -0.83   -0.11    0.00    0.00      -1.81   -2.65   -0.36
#  24    0.77   -1.03    0.15   -0.69   -0.12    0.00    0.00      -0.92   -2.58   -0.43
#  25    1.50   -1.26    0.10   -0.44   -0.15    0.00    0.00      -0.24   -1.12   -0.39
#  26    0.04   -1.52    0.25   -0.43   -0.17    0.00    0.00      -1.83   -1.04   -0.40
#  27    0.88   -1.47    0.21   -0.63   -0.16    0.00    0.00      -1.16   -1.58   -0.40
#  28    0.56   -1.59    0.22   -0.99   -0.25    0.00    0.00      -2.05   -1.85   -0.47
#  29    0.98   -2.15    0.59   -1.01   -0.27    0.00    0.00      -1.85   -1.78   -0.47
#  30    1.05   -2.61    1.21   -0.84   -0.25    0.00    0.00      -1.44   -1.51   -0.46
#  31    1.76   -2.01    0.49   -0.94   -0.22    0.00    0.00      -0.91   -1.74   -0.40
#  32   -3.57   -2.75    0.58    0.53   -0.58    0.00    0.00      -5.77    0.89   -0.96
#  33    8.61   -2.93    1.20   -4.06    1.15    0.00    0.00       3.96   -7.12    2.01
#  34   -1.74   -1.80    0.47    0.52   -0.44    0.00    0.00      -2.99    1.08   -0.92
#  35   -0.51   -0.11    0.02    0.84   -0.03    0.00    0.00       0.21    8.36   -0.28
#  36   -1.36   -0.12    0.02    1.22   -0.02    0.00    0.00      -0.27   11.52   -0.22
#  37   -4.51   -0.16    0.02    1.44   -0.04    0.00    0.00      -3.26    9.42   -0.28
#  38   -2.53   -0.10    0.00    0.81   -0.02    0.00    0.00      -1.83    8.46   -0.22
#  39   -5.75   -0.65    0.55    1.65   -0.07    0.00    0.00      -4.28    6.22   -0.28
#  40   -1.02   -0.04    0.00    0.44   -0.01    0.00    0.00      -0.63   11.57   -0.22
#  41   -0.98   -0.12    0.01    1.11   -0.04    0.00    0.00      -0.02    8.83   -0.28
#  42   -1.70   -0.11    0.01    1.10   -0.03    0.00    0.00      -0.73   10.29   -0.28
#  43   -0.79   -0.08    0.01    0.60   -0.02    0.00    0.00      -0.27    8.27   -0.27
#  44   -0.41   -0.12    0.01    0.69   -0.03    0.00    0.00       0.14    6.21   -0.28
#  45   -0.37   -0.74    0.62    0.52   -0.11    0.00    0.00      -0.07    1.39   -0.28
#  46   -0.79   -0.67    0.23    0.29   -0.15    0.00    0.00      -1.08    0.56   -0.28
#  47   -3.19   -0.54    0.18    1.03   -0.13    0.00    0.00      -2.66    2.17   -0.28
#  48   -3.94   -0.31    0.04    2.80   -0.09    0.00    0.00      -1.50    8.47   -0.28
#  49   -1.23   -0.03    0.00    0.41   -0.01    0.00    0.00      -0.87   11.31   -0.23
#  50   -2.30   -0.07    0.00    0.31   -0.01    0.00    0.00      -2.07    4.64   -0.20
#  51   -4.60   -0.48    0.21    1.62   -0.08    0.00    0.00      -3.32    5.43   -0.28
#  52   -2.41   -0.24    0.07    1.24   -0.05    0.00    0.00      -1.39    6.60   -0.28
#  53   -0.22   -0.20    0.05    1.53   -0.04    0.00    0.00       1.12   10.76   -0.28
#  54    0.28   -0.41    0.39    0.59   -0.05    0.00    0.00       0.79    3.21   -0.28
#  55   -1.02   -0.33    0.07    0.19   -0.07    0.00    0.00      -1.17    0.65   -0.25
#  56   -1.50   -0.36    0.21    1.15   -0.05    0.00    0.00      -0.54    6.14   -0.28
#  57   -0.44   -0.27    0.03    0.76   -0.05    0.00    0.00       0.03    3.08   -0.19
#  58   -1.08   -0.30    0.02    1.03   -0.12    0.00    0.00      -0.45    2.40   -0.28
#  59   -0.65   -0.57    0.16    0.99   -0.15    0.00    0.00      -0.21    1.80   -0.28
#  60   -2.42   -0.97    1.54    0.99   -0.15    0.00    0.00      -1.00    1.82   -0.28
#  61   -4.55   -1.01    0.53    1.26   -0.17    0.00    0.00      -3.94    2.05   -0.28
#  62   -2.84   -0.43    0.27    1.66   -0.08    0.00    0.00      -1.41    5.78   -0.28

@<TRIPOS>MOLECULE
          T537130        50
   62    66     0     0     0



@<TRIPOS>ATOM
      1 C1          6.4837    -9.6596    92.0314 C.3        1           0.0419
      2 N1          5.9917    -8.8478    90.9103 N.4        1          -0.5145
      3 H1          6.3996    -9.1807    90.0495 H          1           0.4385
      4 H2          4.9868    -8.9220    90.8570 H          1           0.4129
      5 C2          6.3686    -7.4436    91.1200 C.3        1           0.0143
      6 C3          5.4785    -6.5407    90.2611 C.3        1          -0.1693
      7 C4          5.7176    -6.8552    88.7828 C.3        1          -0.0247
      8 N2          7.1269    -6.6155    88.4494 N.4        1          -0.3855
      9 H3          7.3670    -5.6617    88.6745 H          1           0.4337
     10 C5          7.3348    -6.8456    87.0135 C.3        1           0.0440
     11 C6          6.8775    -5.6361    86.2396 C.ar       1          -0.1743
     12 C7          5.5679    -5.5479    85.8056 C.ar       1          -0.0905
     13 C8          5.1484    -4.4383    85.0957 C.ar       1          -0.1085
     14 C9          6.0383    -3.4170    84.8203 C.ar       1          -0.0748
     15 C10         7.3475    -3.5050    85.2550 C.ar       1          -0.1108
     16 C11         7.7659    -4.6124    85.9686 C.ar       1          -0.1019
     17 C12         7.9824    -7.5282    89.2171 C.3        1          -0.0326
     18 C13         7.8306    -7.2395    90.7121 C.3        1          -0.1654
     19 C14         5.8744    -9.1624    93.3170 C.ar       1          -0.1713
     20 C15         4.5204    -8.8791    93.3762 C.ar       1          -0.0976
     21 C16         3.9549    -8.4219    94.5518 C.ar       1          -0.1062
     22 C17         4.7374    -8.2462    95.6749 C.ar       1          -0.0685
     23 C18         6.1015    -8.5305    95.6222 C.ar       1          -0.0119
     24 C19         6.6657    -8.9965    94.4349 C.ar       1          -0.0821
     25 C20         6.9469    -8.3435    96.8243 C.ar       1          -0.1226
     26 C21         7.6568    -9.4318    97.3894 C.ar       1          -0.0042
     27 C22         7.5982   -10.7211    96.8487 C.ar       1          -0.1352
     28 C23         8.3045   -11.7283    97.4362 C.ar       1          -0.0757
     29 C24         9.0837   -11.4928    98.5670 C.ar       1          -0.1156
     30 C25         9.1632   -10.2503    99.1190 C.ar       1          -0.0755
     31 C26         8.4491    -9.1890    98.5401 C.ar       1          -0.1144
     32 C27         8.4949    -7.8873    99.0661 C.ar       1           0.1727
     33 N3          7.8148    -6.9189    98.4982 N.ar       1          -0.4919
     34 C28         7.0676    -7.1000    97.4202 C.ar       1           0.1060
     35 H4          6.2040   -10.7016    91.8759 H          1           0.1483
     36 H5          7.5692    -9.5795    92.0891 H          1           0.1410
     37 H6          6.2442    -7.1858    92.1717 H          1           0.1729
     38 H7          4.4320    -6.7210    90.5070 H          1           0.1389
     39 H8          5.7241    -5.4966    90.4553 H          1           0.1399
     40 H9          5.4715    -7.8996    88.5897 H          1           0.1228
     41 H10         5.0852    -6.2144    88.1685 H          1           0.1603
     42 H11         8.3938    -7.0197    86.8230 H          1           0.1374
     43 H12         6.7609    -7.7171    86.6983 H          1           0.1456
     44 H13         4.8728    -6.3459    86.0209 H          1           0.1330
     45 H14         4.1255    -4.3698    84.7560 H          1           0.1407
     46 H15         5.7107    -2.5506    84.2649 H          1           0.1408
     47 H16         8.0428    -2.7071    85.0394 H          1           0.1394
     48 H17         8.7879    -4.6793    86.3115 H          1           0.1283
     49 H18         7.6881    -8.5580    89.0147 H          1           0.1230
     50 H19         9.0222    -7.3841    88.9235 H          1           0.1599
     51 H20         8.1249    -6.2099    90.9158 H          1           0.1391
     52 H21         8.4652    -7.9193    91.2806 H          1           0.1389
     53 H22         3.9052    -9.0140    92.4988 H          1           0.1290
     54 H23         2.8983    -8.2021    94.5912 H          1           0.1420
     55 H24         4.2941    -7.8889    96.5926 H          1           0.1412
     56 H25         7.7209    -9.2225    94.3895 H          1           0.1356
     57 H26         6.9977   -10.9169    95.9727 H          1           0.1288
     58 H27         8.2591   -12.7236    97.0194 H          1           0.1336
     59 H28         9.6330   -12.3086    99.0131 H          1           0.1369
     60 H29         9.7710   -10.0826    99.9958 H          1           0.1428
     61 H30         9.0923    -7.6824    99.9421 H          1           0.1725
     62 H31         6.5367    -6.2592    96.9988 H          1           0.1487
@<TRIPOS>BOND
     1    1    2 1
     2    1   19 1
     3    1   35 1
     4    1   36 1
     5    2    3 1
     6    2    4 1
     7    2    5 1
     8    5   18 1
     9    5    6 1
    10    5   37 1
    11    6    7 1
    12    6   38 1
    13    6   39 1
    14    7    8 1
    15    7   40 1
    16    7   41 1
    17    8    9 1
    18    8   10 1
    19    8   17 1
    20   10   11 1
    21   10   42 1
    22   10   43 1
    23   11   16 ar
    24   11   12 ar
    25   12   13 ar
    26   12   44 1
    27   13   14 ar
    28   13   45 1
    29   14   15 ar
    30   14   46 1
    31   15   16 ar
    32   15   47 1
    33   16   48 1
    34   17   18 1
    35   17   49 1
    36   17   50 1
    37   18   51 1
    38   18   52 1
    39   19   24 ar
    40   19   20 ar
    41   20   21 ar
    42   20   53 1
    43   21   22 ar
    44   21   54 1
    45   22   23 ar
    46   22   55 1
    47   23   24 ar
    48   23   25 1
    49   24   56 1
    50   25   34 ar
    51   25   26 ar
    52   26   31 ar
    53   26   27 ar
    54   27   28 ar
    55   27   57 1
    56   28   29 ar
    57   28   58 1
    58   29   30 ar
    59   29   59 1
    60   30   31 ar
    61   30   60 1
    62   31   32 ar
    63   32   33 ar
    64   32   61 1
    65   33   34 ar
    66   34   62 1
##########                 Name:              T538420
##########          Protonation:                   94
##########               SMILES:   c1cc(ccc1/C=C/C(=O)NCCCCC[NH+]2CCCN(CC2)C(=O)Nc3ccc(c(c3)C(F)(F)F)Cl)C#N
##########            Long Name:   3-(4-cyanophenyl)prop-2-enoyl]amino]pentyl]-1,4-diazepan-4-ium-1-carboxamide
##########          FlexRecCode: 1
##########               Number:                  103
##########   Ligand Source File: /raidb/db2/rgc/tcams/tcams-0001943.db2.gz
##########           GlobalRank: 276
##########                 Rank:                    1
##########               Setnum:                  341
##########             Matchnum:                  715
##########                Cloud:                    1
##########        Electrostatic:           -40.492641
##########        Van der Waals:           -29.768147
##########  Ligand Polar Desolv:             8.803259
########## Ligand Apolar Desolv:            -3.865207
##########      Internal Energy:             0.000000
##########      Receptor Energy: 0.0
########## Receptor Desolvation:             0.000000
########## Receptor Hydrophobic:             0.000000
##########         Total Energy: -65.32
##########        Ligand Charge:             1.000000
##########            Arbitrary:    +999.9990
##########     heavy atom count:   39
##########           pose count:    1
##########        Ligand Energy:             0.000000
# num electro vdwattr vdwrepu polsolv apolsol rdesolv rhydroe totalscore fullpol fullapo
#   1    1.49   -0.99    0.09   -0.59   -0.25    0.00    0.00      -0.25   -1.02   -0.44
#   2   -3.20   -1.02    0.12    1.10   -0.03    0.00    0.00      -3.04    2.28   -0.06
#   3    1.41   -0.56    0.03   -0.20   -0.18    0.00    0.00       0.50   -0.50   -0.45
#   4   -0.11   -2.46    1.78   -0.29   -0.22    0.00    0.00      -1.32   -0.59   -0.45
#   5    1.15   -1.52    0.27   -0.55   -0.16    0.00    0.00      -0.81   -1.28   -0.37
#   6    0.68   -1.38    0.16   -0.35   -0.16    0.00    0.00      -1.05   -0.97   -0.44
#   7   -2.02   -1.45    0.15    1.14   -0.31    0.00    0.00      -2.48    2.52   -0.68
#   8   10.85   -1.34    0.14   -5.07    0.71    0.00    0.00       5.29  -11.89    1.67
#   9   -9.79   -1.09    0.08    4.58   -0.74    0.00    0.00      -6.97   12.45   -2.02
#  10    2.56   -1.94    0.63   -3.17    0.12    0.00    0.00      -1.79   -8.24    0.32
#  11   13.59   -0.86    0.04   -4.60    0.45    0.00    0.00       8.62  -14.60    1.44
#  12   -1.93   -0.52    0.02    0.63   -0.14    0.00    0.00      -1.94    2.07   -0.46
#  13    3.42   -0.42    0.01   -1.06   -0.06    0.00    0.00       1.89   -4.56   -0.24
#  14    0.20   -0.35    0.02   -0.06   -0.07    0.00    0.00      -0.27   -0.34   -0.36
#  15   11.04   -0.97    0.42   -2.75    0.04    0.00    0.00       7.79  -11.80    0.18
#  16  -18.41   -0.05    0.00    4.08    0.11    0.00    0.00     -14.27   17.33    0.45
#  17    0.44   -0.39    0.04   -0.01   -0.06    0.00    0.00       0.01   -0.06   -0.34
#  18    2.72   -0.39    0.03   -0.84   -0.04    0.00    0.00       1.48   -4.25   -0.20
#  19    1.14   -0.18    0.00   -0.35   -0.03    0.00    0.00       0.58   -3.07   -0.22
#  20    0.41   -0.27    0.01   -0.37   -0.03    0.00    0.00      -0.25   -2.47   -0.22
#  21   -0.30   -0.22    0.01    0.19   -0.06    0.00    0.00      -0.38    1.45   -0.43
#  22    2.48   -0.81    0.24   -1.64    0.40    0.00    0.00       0.66   -9.66    2.33
#  23   -2.23   -0.52    0.12    0.61   -0.09    0.00    0.00      -2.10    4.59   -0.65
#  24    1.95   -0.15    0.00   -0.14    0.03    0.00    0.00       1.69   -1.74    0.39
#  25    1.07   -0.86    0.41   -0.36   -0.07    0.00    0.00       0.17   -2.14   -0.43
#  26    0.03   -0.29    0.02   -0.05   -0.05    0.00    0.00      -0.34   -0.48   -0.44
#  27    0.11   -0.29    0.01   -0.05   -0.05    0.00    0.00      -0.28   -0.39   -0.41
#  28    0.25   -0.76    0.12   -0.26   -0.10    0.00    0.00      -0.75   -1.14   -0.44
#  29    0.16   -1.19    0.67   -0.14   -0.10    0.00    0.00      -0.60   -0.63   -0.45
#  30    0.01   -0.39    0.03   -0.06   -0.05    0.00    0.00      -0.45   -0.44   -0.40
#  31    0.07   -0.16    0.00   -0.04   -0.03    0.00    0.00      -0.16   -0.58   -0.45
#  32    0.12   -0.15    0.00   -0.06   -0.03    0.00    0.00      -0.12   -0.99   -0.45
#  33   -0.22   -0.34    0.02    0.11   -0.18    0.00    0.00      -0.61    0.85   -1.46
#  34    0.24   -0.26    0.01    0.06    0.07    0.00    0.00       0.11    0.59    0.71
#  35    1.48   -1.07    0.49   -0.12   -0.11    0.00    0.00       0.67   -0.40   -0.39
#  36   -3.88   -1.07    0.37    0.94   -0.16    0.00    0.00      -3.80    2.44   -0.42
#  37    1.31   -2.01    0.30   -0.47   -0.22    0.00    0.00      -1.10   -0.84   -0.40
#  38    1.48   -2.42    0.79   -0.46   -0.25    0.00    0.00      -0.87   -0.84   -0.46
#  39    0.03   -1.98    0.74   -0.19   -0.16    0.00    0.00      -1.56   -0.36   -0.30
#  40    0.18   -5.53    3.15   -0.26   -0.55    0.00    0.00      -3.01   -0.43   -0.91
#  41   -0.76   -0.24    0.02    0.62   -0.06    0.00    0.00      -0.41    2.70   -0.25
#  42   -7.73   -0.03    0.00    3.13    0.13    0.00    0.00      -4.50    9.65    0.41
#  43   -1.25   -0.17    0.01    0.42   -0.03    0.00    0.00      -1.02    2.46   -0.20
#  44   -2.43   -0.22    0.01    0.43   -0.06    0.00    0.00      -2.26    2.10   -0.28
#  45   -2.21   -0.09    0.00    0.36   -0.02    0.00    0.00      -1.96    4.44   -0.28
#  46   -2.97   -0.21    0.02    1.01   -0.05    0.00    0.00      -2.20    4.85   -0.25
#  47   -1.09   -0.14    0.02    0.39   -0.03    0.00    0.00      -0.85    3.25   -0.24
#  48   -1.63   -0.07    0.00    0.41   -0.01    0.00    0.00      -1.30    6.22   -0.21
#  49   -3.33   -0.15    0.02    0.79   -0.04    0.00    0.00      -2.72    5.10   -0.27
#  50   -1.64   -0.06    0.00    0.22   -0.01    0.00    0.00      -1.50    4.19   -0.27
#  51   -1.14   -0.07    0.00    0.30   -0.02    0.00    0.00      -0.93    3.84   -0.21
#  52   -2.64   -0.30    0.07    0.93   -0.07    0.00    0.00      -2.01    3.93   -0.28
#  53   -1.02   -0.06    0.00    0.07   -0.01    0.00    0.00      -1.01    1.43   -0.28
#  54   -0.50   -0.03    0.00    0.04   -0.01    0.00    0.00      -0.49    1.39   -0.28
#  55   -0.17   -0.06    0.00    0.13   -0.02    0.00    0.00      -0.12    2.21   -0.28
#  56   -0.27   -0.18    0.03    0.34   -0.04    0.00    0.00      -0.13    2.17   -0.28
#  57   -0.14   -0.03    0.00    0.01   -0.01    0.00    0.00      -0.17    0.32   -0.28
#  58   -0.17   -0.08    0.00    0.02   -0.02    0.00    0.00      -0.25    0.33   -0.28
#  59   -1.68   -0.03    0.00    1.49    0.10    0.00    0.00      -0.11    8.03    0.56
#  60   -1.53   -0.42    0.40    0.72   -0.04    0.00    0.00      -0.89    3.42   -0.21
#  61   -0.31   -0.02    0.00    0.02   -0.01    0.00    0.00      -0.32    0.70   -0.26
#  62   -1.33   -0.22    0.03    0.80   -0.05    0.00    0.00      -0.77    3.31   -0.21
#  63   -0.36   -0.70    1.22    0.52   -0.07    0.00    0.00       0.61    1.96   -0.28
#  64   -0.08   -0.02    0.00    0.03   -0.01    0.00    0.00      -0.08    1.13   -0.28
#  65   -0.15   -0.02    0.00    0.04   -0.01    0.00    0.00      -0.13    1.59   -0.28
#  66   -2.58   -0.17    0.02    0.49   -0.05    0.00    0.00      -2.29    2.91   -0.28
#  67   -5.81   -0.70    0.70    2.00   -0.08    0.00    0.00      -3.89    6.23   -0.26
#  68   -4.81   -0.66    0.96    1.67   -0.09    0.00    0.00      -2.94    5.02   -0.28
#  69   -4.25   -0.35    0.06    0.50   -0.10    0.00    0.00      -4.14    1.26   -0.24
#  70   -3.16   -0.50    0.07    1.18   -0.12    0.00    0.00      -2.53    2.16   -0.22
#  71   -3.29   -0.76    0.42    0.88   -0.15    0.00    0.00      -2.90    1.65   -0.28

@<TRIPOS>MOLECULE
          T538420        94
   71    73     0     0     0



@<TRIPOS>ATOM
      1 F1          8.5044   -13.0508    97.1564 F          1          -0.1741
      2 C1          7.7514   -12.0740    96.4961 C.3        1           0.5099
      3 F2          8.2085   -11.9431    95.1804 F          1          -0.1648
      4 F3          6.4042   -12.4509    96.4865 F          1          -0.1654
      5 C2          7.8992   -10.7564    97.2126 C.ar       1          -0.1540
      6 C3          7.2376    -9.6381    96.7439 C.ar       1          -0.0848
      7 C4          7.3737    -8.4246    97.4047 C.ar       1           0.1530
      8 N1          6.7038    -7.2898    96.9319 N.am       1          -0.6776
      9 C5          5.5279    -7.4215    96.2864 C.2        1           0.7036
     10 O1          4.7860    -8.3460    96.5571 O.2        1          -0.5496
     11 N2          5.1746    -6.5285    95.3408 N.am       1          -0.6351
     12 C6          3.7407    -6.2440    95.1307 C.3        1           0.0939
     13 C7          3.4121    -6.1352    93.6304 C.3        1          -0.1568
     14 C8          4.1805    -7.1923    92.8688 C.3        1          -0.0118
     15 N3          5.4379    -6.6231    92.3892 N.4        1          -0.3665
     16 H1          5.2841    -5.6501    92.1711 H          1           0.4175
     17 C9          5.8197    -7.3185    91.1529 C.3        1          -0.0203
     18 C10         5.0234    -6.7457    89.9787 C.3        1          -0.1467
     19 C11         5.4210    -7.4699    88.6911 C.3        1          -0.1156
     20 C12         4.6247    -6.8971    87.5169 C.3        1          -0.1323
     21 C13         5.0223    -7.6215    86.2293 C.3        1           0.1174
     22 N4          6.4548    -7.4335    85.9858 N.am       1          -0.7318
     23 C14         7.3446    -8.3124    86.4882 C.2        1           0.5486
     24 O2          6.9582    -9.2618    87.1439 O.2        1          -0.5378
     25 C15         8.7772    -8.1244    86.2449 C.2        1          -0.2147
     26 C16         9.6673    -9.0035    86.7474 C.2        1          -0.0126
     27 C17        11.1062    -8.8147    86.5031 C.ar       1          -0.0533
     28 C18        11.5944    -7.5565    86.1332 C.ar       1          -0.1023
     29 C19        12.9351    -7.3814    85.9063 C.ar       1          -0.0721
     30 C20        13.8142    -8.4593    86.0437 C.ar       1          -0.0106
     31 C21        13.3276    -9.7164    86.4130 C.ar       1          -0.0706
     32 C22        11.9878    -9.8920    86.6459 C.ar       1          -0.0917
     33 C23        15.2143    -8.2758    85.8054 C.1        1           0.2429
     34 N5         16.3250    -8.1301    85.6165 N.1        1          -0.4003
     35 C24         6.5163    -6.7111    93.2975 C.3        1          -0.0467
     36 C25         6.2150    -5.8778    94.5714 C.3        1           0.1142
     37 C26         8.1751    -8.3386    98.5356 C.ar       1          -0.0755
     38 C27         8.8343    -9.4596    99.0001 C.ar       1          -0.0884
     39 C28         8.6927   -10.6692    98.3426 C.ar       1          -0.0028
     40 Cl1         9.5176   -12.0781    98.9329 Cl         1          -0.0293
     41 H2          6.6152    -9.7075    95.8640 H          1           0.1520
     42 H3          7.0859    -6.4088    97.0688 H          1           0.4111
     43 H4          3.1486    -7.0473    95.5691 H          1           0.0927
     44 H5          3.4866    -5.3045    95.6216 H          1           0.0957
     45 H6          2.3427    -6.2846    93.4808 H          1           0.1285
     46 H7          3.6953    -5.1474    93.2671 H          1           0.0950
     47 H8          4.3904    -8.0350    93.5274 H          1           0.1285
     48 H9          3.5877    -7.5323    92.0197 H          1           0.1396
     49 H10         6.8854    -7.1788    90.9716 H          1           0.1349
     50 H11         5.6046    -8.3823    91.2532 H          1           0.1315
     51 H12         3.9577    -6.8853    90.1600 H          1           0.0875
     52 H13         5.2385    -5.6817    89.8784 H          1           0.0894
     53 H14         6.4867    -7.3303    88.5099 H          1           0.0800
     54 H15         5.2059    -8.5338    88.7914 H          1           0.0789
     55 H16         3.5590    -7.0368    87.6982 H          1           0.0742
     56 H17         4.8397    -5.8333    87.4167 H          1           0.0750
     57 H18         4.8074    -8.6853    86.3296 H          1           0.0704
     58 H19         4.4551    -7.2134    85.3928 H          1           0.0700
     59 H20         6.7627    -6.6768    85.4632 H          1           0.4024
     60 H21         9.1202    -7.2816    85.6631 H          1           0.1327
     61 H22         9.3244    -9.8462    87.3292 H          1           0.1415
     62 H23        10.9151    -6.7236    86.0264 H          1           0.1373
     63 H24        13.3121    -6.4104    85.6210 H          1           0.1381
     64 H25        14.0075   -10.5489    86.5185 H          1           0.1400
     65 H26        11.6125   -10.8624    86.9353 H          1           0.1419
     66 H27         6.6701    -7.7539    93.5752 H          1           0.1314
     67 H28         7.4201    -6.3291    92.8230 H          1           0.1471
     68 H29         5.8823    -4.8806    94.2830 H          1           0.1034
     69 H30         7.1171    -5.7964    95.1780 H          1           0.1345
     70 H31         8.2829    -7.3959    99.0512 H          1           0.1562
     71 H32         9.4579    -9.3932    99.8793 H          1           0.1541
@<TRIPOS>BOND
     1    1    2 1
     2    2    3 1
     3    2    4 1
     4    2    5 1
     5    5   39 ar
     6    5    6 ar
     7    6    7 ar
     8    6   41 1
     9    7    8 1
    10    7   37 ar
    11    8    9 am
    12    8   42 1
    13    9   10 2
    14    9   11 am
    15   11   36 1
    16   11   12 1
    17   12   13 1
    18   12   43 1
    19   12   44 1
    20   13   14 1
    21   13   45 1
    22   13   46 1
    23   14   15 1
    24   14   47 1
    25   14   48 1
    26   15   16 1
    27   15   17 1
    28   15   35 1
    29   17   18 1
    30   17   49 1
    31   17   50 1
    32   18   19 1
    33   18   51 1
    34   18   52 1
    35   19   20 1
    36   19   53 1
    37   19   54 1
    38   20   21 1
    39   20   55 1
    40   20   56 1
    41   21   22 1
    42   21   57 1
    43   21   58 1
    44   22   23 am
    45   22   59 1
    46   23   24 2
    47   23   25 1
    48   25   26 2
    49   25   60 1
    50   26   27 1
    51   26   61 1
    52   27   32 ar
    53   27   28 ar
    54   28   29 ar
    55   28   62 1
    56   29   30 ar
    57   29   63 1
    58   30   31 ar
    59   30   33 1
    60   31   32 ar
    61   31   64 1
    62   32   65 1
    63   33   34 3
    64   35   36 1
    65   35   66 1
    66   35   67 1
    67   36   68 1
    68   36   69 1
    69   37   38 ar
    70   37   70 1
    71   38   39 ar
    72   38   71 1
    73   39   40 1
##########                 Name:              T526185
##########          Protonation:                   26
##########               SMILES:   N[C@H](C[NH2+][C@H]1CC[NH+](CC1)C[C@H](O)c2c3c(ncc2)ccc(c3)OC)Cc4ccccc4)(C)C
##########            Long Name:   -[(2R)-2-hydroxy-2-(6-methoxy-4-quinolyl)ethyl]piperidin-1-ium-4-yl]ammonium
##########          FlexRecCode: 1
##########               Number:                   87
##########   Ligand Source File: /raidb/db2/rgc/tcams/tcams-0000316.db2.gz
##########           GlobalRank: 278
##########                 Rank:                    1
##########               Setnum:                  350
##########             Matchnum:                 4132
##########                Cloud:                    1
##########        Electrostatic:           -57.527973
##########        Van der Waals:           -20.883175
##########  Ligand Polar Desolv:            14.216090
########## Ligand Apolar Desolv:            -1.102247
##########      Internal Energy:             0.000000
##########      Receptor Energy: 0.0
########## Receptor Desolvation:             0.000000
########## Receptor Hydrophobic:             0.000000
##########         Total Energy: -65.3
##########        Ligand Charge:             2.000000
##########            Arbitrary:    +999.9990
##########     heavy atom count:   39
##########           pose count:    1
##########        Ligand Energy:             0.000000
# num electro vdwattr vdwrepu polsolv apolsol rdesolv rhydroe totalscore fullpol fullapo
#   1    0.02   -0.67    0.34    0.04    0.00    0.00    0.00      -0.28    0.24    0.03
#   2   -0.20   -0.35    0.03   -0.82    0.11    0.00    0.00      -1.22   -6.73    0.93
#   3    0.00   -0.17    0.00    0.13   -0.02    0.00    0.00      -0.06    1.86   -0.31
#   4    0.11   -0.19    0.00   -0.19   -0.03    0.00    0.00      -0.30   -2.61   -0.43
#   5    0.04   -0.19    0.00   -0.13   -0.03    0.00    0.00      -0.31   -1.70   -0.40
#   6    0.18   -0.39    0.01   -0.16   -0.05    0.00    0.00      -0.41   -1.02   -0.35
#   7    0.26   -0.89    0.18   -0.87   -0.10    0.00    0.00      -1.42   -4.02   -0.44
#   8   -0.17   -0.74    0.18    0.27   -0.18    0.00    0.00      -0.64    1.47   -0.97
#   9    0.37   -0.25    0.01   -0.78    0.20    0.00    0.00      -0.45   -7.84    2.00
#  10   -0.06   -0.14    0.00    0.02   -0.04    0.00    0.00      -0.23    0.31   -0.73
#  11    0.01   -0.08    0.00   -0.07   -0.02    0.00    0.00      -0.16   -1.94   -0.46
#  12    0.01   -0.10    0.00   -0.13   -0.02    0.00    0.00      -0.25   -2.97   -0.43
#  13   -0.82   -0.33    0.01    1.27   -0.02    0.00    0.00       0.12    5.64   -0.10
#  14    8.57   -1.04    0.11   -7.98    0.58    0.00    0.00       0.25  -21.59    1.58
#  15    0.32   -0.25    0.01   -0.17   -0.05    0.00    0.00      -0.15   -1.06   -0.32
#  16    6.42   -0.47    0.03   -3.68    0.06    0.00    0.00       2.35  -17.89    0.27
#  17   -9.55   -0.02    0.00    4.33    0.09    0.00    0.00      -5.15   23.15    0.49
#  18    0.16   -0.40    0.04   -0.32   -0.07    0.00    0.00      -0.60   -1.66   -0.37
#  19    4.02   -0.85    0.21   -2.28   -0.07    0.00    0.00       1.02   -8.43   -0.24
#  20   -0.36   -0.57    0.09    0.47   -0.05    0.00    0.00      -0.42    2.09   -0.23
#  21    4.50   -0.77    0.14   -2.48   -0.05    0.00    0.00       1.34   -9.31   -0.20
#  22    0.04   -0.35    0.01    0.01   -0.08    0.00    0.00      -0.36    0.06   -0.38
#  23   18.13   -1.89    1.82   -6.98    0.17    0.00    0.00      11.24  -25.56    0.62
#  24  -25.61   -0.24    0.14    8.59    0.19    0.00    0.00     -16.94   25.87    0.56
#  25  -12.75   -0.02    0.00    4.46    0.10    0.00    0.00      -8.22   22.26    0.49
#  26    1.05   -0.59    0.13   -0.08   -0.07    0.00    0.00       0.45   -0.37   -0.33
#  27   -4.27   -0.61    0.12    1.38   -0.07    0.00    0.00      -3.44    5.95   -0.28
#  28    1.26   -0.46    0.05   -0.71   -0.04    0.00    0.00       0.10   -3.49   -0.20
#  29    0.94   -1.10    0.32   -0.36   -0.09    0.00    0.00      -0.28   -1.36   -0.35
#  30    0.41   -1.62    0.94   -0.66   -0.12    0.00    0.00      -1.04   -2.51   -0.45
#  31    0.56   -1.34    0.28   -0.84   -0.15    0.00    0.00      -1.48   -2.72   -0.47
#  32    0.90   -1.26    0.12   -0.93   -0.16    0.00    0.00      -1.33   -2.65   -0.47
#  33    1.34   -1.27    0.11   -1.02   -0.19    0.00    0.00      -1.04   -2.55   -0.47
#  34    1.42   -1.05    0.08   -0.85   -0.15    0.00    0.00      -0.54   -2.41   -0.44
#  35   19.62   -1.06    0.14   -6.74    0.54    0.00    0.00      12.50  -25.24    2.01
#  36   -9.38   -0.58    0.04    4.08   -0.08    0.00    0.00      -5.92   20.11   -0.39
#  37    4.94   -0.28    0.00   -2.39   -0.03    0.00    0.00       2.25  -17.58   -0.20
#  38    2.70   -0.93    0.33   -2.33    0.07    0.00    0.00      -0.16  -10.07    0.29
#  39   -0.66   -0.42    0.05    0.70   -0.01    0.00    0.00      -0.33    3.51   -0.07
#  40    2.46   -0.47    0.03   -0.94   -0.04    0.00    0.00       1.04   -3.75   -0.16
#  41    0.27   -0.79    0.25   -0.97   -0.05    0.00    0.00      -1.30   -3.29   -0.18
#  42    0.33   -0.21    0.00   -0.58   -0.02    0.00    0.00      -0.47   -4.70   -0.16
#  43    0.13   -1.04    3.17    0.24   -0.05    0.00    0.00       2.44    1.16   -0.27
#  44    0.03   -0.06    0.00    0.05   -0.02    0.00    0.00       0.00    0.75   -0.27
#  45    0.09   -0.17    0.05    0.38   -0.04    0.00    0.00       0.31    2.98   -0.28
#  46   -0.21   -0.05    0.00    0.43   -0.01    0.00    0.00       0.16    9.06   -0.22
#  47   -1.02   -0.50    0.38    1.87   -0.06    0.00    0.00       0.67    7.24   -0.22
#  48   -0.27   -0.29    0.16    0.54   -0.05    0.00    0.00       0.08    2.84   -0.28
#  49   -0.03   -0.01    0.00    0.01    0.00    0.00    0.00      -0.04    0.56   -0.28
#  50    0.02   -0.02    0.00    0.04    0.00    0.00    0.00       0.03    2.02   -0.22
#  51   -0.75   -0.09    0.00    0.59   -0.02    0.00    0.00      -0.27    6.90   -0.18
#  52   -9.59   -0.04    0.00    5.32    0.32    0.00    0.00      -3.99   16.83    1.00
#  53   -1.31   -0.11    0.00    1.02   -0.04    0.00    0.00      -0.43    7.77   -0.28
#  54   -0.48   -0.04    0.00    0.30   -0.01    0.00    0.00      -0.23    7.68   -0.28
#  55   -1.46   -0.05    0.00    0.50   -0.01    0.00    0.00      -1.03    9.33   -0.28
#  56   -1.73   -0.18    0.03    1.00   -0.03    0.00    0.00      -0.92    6.36   -0.22
#  57   -2.82   -0.26    0.07    1.69   -0.06    0.00    0.00      -1.38    7.83   -0.28
#  58   -3.68   -0.65    0.40    2.26   -0.10    0.00    0.00      -1.78    6.49   -0.28
#  59   -2.47   -0.06    0.00    0.61   -0.01    0.00    0.00      -1.93   11.75   -0.28
#  60   -2.63   -0.19    0.02    1.04   -0.04    0.00    0.00      -1.80    6.01   -0.22
#  61   -4.36   -0.68    0.46    1.97   -0.09    0.00    0.00      -2.69    5.98   -0.28
#  62   -3.01   -0.13    0.01    0.95   -0.04    0.00    0.00      -2.23    6.96   -0.28
#  63   -1.57   -0.06    0.00    0.45   -0.01    0.00    0.00      -1.19    8.71   -0.28
#  64   -2.35   -0.07    0.00    0.42   -0.01    0.00    0.00      -2.01    6.25   -0.16
#  65   -4.11   -0.20    0.03    2.11   -0.05    0.00    0.00      -2.22   11.21   -0.28
#  66   -4.94   -0.34    0.18    1.60   -0.06    0.00    0.00      -3.55    8.10   -0.28
#  67   -1.68   -0.12    0.00    0.22   -0.02    0.00    0.00      -1.60    2.02   -0.21
#  68   -0.49   -0.16    0.03    0.64   -0.04    0.00    0.00      -0.01    4.96   -0.28
#  69   -0.17   -0.30    0.12    0.93   -0.05    0.00    0.00       0.53    5.33   -0.28
#  70   -0.59   -0.21    0.02    0.37   -0.05    0.00    0.00      -0.46    1.99   -0.28
#  71   -1.20   -0.22    0.02    0.20   -0.06    0.00    0.00      -1.27    0.89   -0.28
#  72   -1.75   -0.28    0.02    0.32   -0.09    0.00    0.00      -1.78    0.98   -0.28
#  73   -2.02   -0.21    0.01    0.47   -0.06    0.00    0.00      -1.81    2.08   -0.26
#  74  -14.00   -0.03    0.00    4.55    0.18    0.00    0.00      -9.30   15.47    0.60
#  75   -1.05   -0.24    0.08    0.00   -0.05    0.00    0.00      -1.26    0.02   -0.28
#  76   -1.09   -0.10    0.00    0.08   -0.03    0.00    0.00      -1.13    0.88   -0.28
#  77   -1.38   -0.19    0.02    0.33   -0.04    0.00    0.00      -1.25    1.81   -0.20
#  78   -0.29   -0.19    0.02    0.48   -0.06    0.00    0.00      -0.04    2.09   -0.28
#  79   -0.36   -0.72    1.39    0.39   -0.08    0.00    0.00       0.62    1.33   -0.28
#  80   -0.09   -0.17    0.02    0.05   -0.05    0.00    0.00      -0.24    0.27   -0.28
#  81   -0.16   -0.08    0.00    0.31   -0.02    0.00    0.00       0.05    3.79   -0.20
#  82   -0.12   -0.04    0.00    0.04   -0.01    0.00    0.00      -0.13    1.00   -0.28
#  83   -0.10   -0.05    0.00    0.17   -0.01    0.00    0.00       0.01    3.55   -0.28

@<TRIPOS>MOLECULE
          T526185        26
   83    86     0     0     0



@<TRIPOS>ATOM
      1 C1         13.2382   -13.2849    90.0221 C.3        1           0.0188
      2 O1         12.7288   -11.9531    89.9277 O.3        1          -0.3159
      3 C2         13.2489   -11.1613    88.9532 C.ar       1           0.1640
      4 C3         12.8045    -9.8763    88.8184 C.ar       1          -0.1873
      5 C4         13.3421    -9.0595    87.8121 C.ar       1          -0.0434
      6 C5         12.9118    -7.7299    87.6405 C.ar       1          -0.1064
      7 C6         13.4793    -6.9929    86.6405 C.ar       1          -0.1275
      8 C7         14.4553    -7.5623    85.8251 C.ar       1           0.1194
      9 N1         14.8536    -8.8004    85.9876 N.ar       1          -0.4352
     10 C8         14.3393    -9.5761    86.9472 C.ar       1           0.0982
     11 C9         14.7717   -10.9034    87.1154 C.ar       1          -0.0291
     12 C10        14.2363   -11.6690    88.1040 C.ar       1          -0.1771
     13 C11        11.8542    -7.1366    88.5351 C.3        1           0.1376
     14 O2         12.0726    -5.7302    88.6632 O.3        1          -0.5444
     15 C12        10.4729    -7.3847    87.9257 C.3        1          -0.0470
     16 N2          9.4418    -6.8064    88.7977 N.4        1          -0.3845
     17 H1          9.7629    -5.9184    89.1534 H          1           0.4305
     18 C13         9.1851    -7.7171    89.9199 C.3        1          -0.0110
     19 C14         8.1711    -7.0831    90.8746 C.3        1          -0.1685
     20 C15         6.8647    -6.8184    90.1207 C.3        1           0.0146
     21 C16         7.1571    -5.9280    88.9096 C.3        1          -0.1718
     22 C17         8.2081    -6.6064    88.0282 C.3        1          -0.0021
     23 N3          5.9127    -6.1404    91.0106 N.4        1          -0.5042
     24 H2          6.3061    -5.2639    91.3188 H          1           0.4361
     25 H3          5.0524    -5.9665    90.5130 H          1           0.4269
     26 C18         5.6406    -6.9918    92.1765 C.3        1          -0.0401
     27 C19         4.6491    -6.2856    93.1034 C.3        1           0.1516
     28 C20         3.9875    -7.3150    94.0217 C.3        1          -0.0965
     29 C21         5.0435    -8.0041    94.8470 C.ar       1          -0.1034
     30 C22         5.6513    -9.1517    94.3732 C.ar       1          -0.1154
     31 C23         6.6199    -9.7839    95.1302 C.ar       1          -0.1134
     32 C24         6.9812    -9.2680    96.3608 C.ar       1          -0.1065
     33 C25         6.3741    -8.1199    96.8342 C.ar       1          -0.1143
     34 C26         5.4085    -7.4854    96.0752 C.ar       1          -0.1062
     35 N4          3.6227    -5.6158    92.3011 N.am       1          -0.7258
     36 C27         2.8389    -6.3346    91.4731 C.2        1           0.6456
     37 O3          2.9838    -7.5384    91.3921 O.2        1          -0.5575
     38 O4          1.8955    -5.7189    90.7358 O.3        1          -0.3477
     39 C28         0.5414    -6.1252    90.9447 C.3        1           0.1365
     40 C29         0.1526    -5.8737    92.4030 C.3        1          -0.1911
     41 C30        -0.3799    -5.3209    90.0253 C.3        1          -0.1481
     42 C31         0.4017    -7.6158    90.6293 C.3        1          -0.1842
     43 H4         12.7397   -13.8076    90.8385 H          1           0.0646
     44 H5         13.0526   -13.8122    89.0863 H          1           0.0658
     45 H6         14.3107   -13.2511    90.2135 H          1           0.1105
     46 H7         12.0442    -9.4916    89.4820 H          1           0.1253
     47 H8         13.1716    -5.9698    86.4816 H          1           0.1413
     48 H9         14.8950    -6.9676    85.0380 H          1           0.1712
     49 H10        15.5304   -11.3123    86.4647 H          1           0.1521
     50 H11        14.5761   -12.6862    88.2317 H          1           0.1478
     51 H12        11.9065    -7.6035    89.5187 H          1           0.1361
     52 H13        12.0400    -5.2491    87.8249 H          1           0.3925
     53 H14        10.4206    -6.9178    86.9422 H          1           0.1468
     54 H15        10.3062    -8.4575    87.8281 H          1           0.1505
     55 H16         8.7868    -8.6579    89.5398 H          1           0.1460
     56 H17        10.1164    -7.9071    90.4535 H          1           0.1528
     57 H18         7.9805    -7.7617    91.7060 H          1           0.1403
     58 H19         8.5685    -6.1425    91.2554 H          1           0.1134
     59 H20         6.4402    -7.7642    89.7836 H          1           0.1610
     60 H21         6.2416    -5.7807    88.3366 H          1           0.1410
     61 H22         7.5335    -4.9632    89.2498 H          1           0.1115
     62 H23         8.4175    -5.9756    87.1642 H          1           0.1525
     63 H24         7.8311    -7.5714    87.6896 H          1           0.1446
     64 H25         5.2156    -7.9387    91.8435 H          1           0.1576
     65 H26         6.5701    -7.1798    92.7139 H          1           0.1531
     66 H27         5.1779    -5.5476    93.7064 H          1           0.1280
     67 H28         3.2812    -6.8120    94.6821 H          1           0.1083
     68 H29         3.4587    -8.0532    93.4187 H          1           0.0953
     69 H30         5.3690    -9.5548    93.4119 H          1           0.1220
     70 H31         7.0943   -10.6808    94.7604 H          1           0.1282
     71 H32         7.7375    -9.7622    96.9526 H          1           0.1287
     72 H33         6.6561    -7.7170    97.7958 H          1           0.1256
     73 H34         4.9368    -6.5863    96.4434 H          1           0.1118
     74 H35         3.5070    -4.6549    92.3657 H          1           0.4213
     75 H36        -0.8801    -6.1836    92.5623 H          1           0.0658
     76 H37         0.8091    -6.4467    93.0579 H          1           0.0790
     77 H38         0.2523    -4.8118    92.6275 H          1           0.0862
     78 H39        -1.4127    -5.6307    90.1846 H          1           0.0680
     79 H40        -0.2802    -4.2589    90.2501 H          1           0.0893
     80 H41        -0.1029    -5.4999    88.9864 H          1           0.0738
     81 H42        -0.6312    -7.9255    90.7886 H          1           0.0807
     82 H43         0.6786    -7.7948    89.5902 H          1           0.0803
     83 H44         1.0581    -8.1888    91.2842 H          1           0.0551
@<TRIPOS>BOND
     1    1    2 1
     2    1   43 1
     3    1   44 1
     4    1   45 1
     5    2    3 1
     6    3   12 ar
     7    3    4 ar
     8    4    5 ar
     9    4   46 1
    10    5   10 ar
    11    5    6 ar
    12    6    7 ar
    13    6   13 1
    14    7    8 ar
    15    7   47 1
    16    8    9 ar
    17    8   48 1
    18    9   10 ar
    19   10   11 ar
    20   11   12 ar
    21   11   49 1
    22   12   50 1
    23   13   14 1
    24   13   15 1
    25   13   51 1
    26   14   52 1
    27   15   16 1
    28   15   53 1
    29   15   54 1
    30   16   17 1
    31   16   22 1
    32   16   18 1
    33   18   19 1
    34   18   55 1
    35   18   56 1
    36   19   20 1
    37   19   57 1
    38   19   58 1
    39   20   21 1
    40   20   23 1
    41   20   59 1
    42   21   22 1
    43   21   60 1
    44   21   61 1
    45   22   62 1
    46   22   63 1
    47   23   24 1
    48   23   25 1
    49   23   26 1
    50   26   27 1
    51   26   64 1
    52   26   65 1
    53   27   28 1
    54   27   35 1
    55   27   66 1
    56   28   29 1
    57   28   67 1
    58   28   68 1
    59   29   34 ar
    60   29   30 ar
    61   30   31 ar
    62   30   69 1
    63   31   32 ar
    64   31   70 1
    65   32   33 ar
    66   32   71 1
    67   33   34 ar
    68   33   72 1
    69   34   73 1
    70   35   36 am
    71   35   74 1
    72   36   37 2
    73   36   38 1
    74   38   39 1
    75   39   40 1
    76   39   41 1
    77   39   42 1
    78   40   75 1
    79   40   76 1
    80   40   77 1
    81   41   78 1
    82   41   79 1
    83   41   80 1
    84   42   81 1
    85   42   82 1
    86   42   83 1
##########                 Name:              T537827
##########          Protonation:                   86
##########               SMILES:   c1cc(c(cc1)F)c2cc(ccc2)C[NH2+][C@H]3CCN(CC3)C[C@@H]4c5c6n(c(=O)ccc6ccc5F)C4
##########            Long Name:   o(oxo)BLAHyl]methyl]-4-piperidyl]-[[3-(2-fluorophenyl)phenyl]methyl]ammonium
##########          FlexRecCode: 1
##########               Number:                  189
##########   Ligand Source File: /raidb/db2/rgc/tcams/tcams-0001675.db2.gz
##########           GlobalRank: 278
##########                 Rank:                    1
##########               Setnum:                   93
##########             Matchnum:                  139
##########                Cloud:                    1
##########        Electrostatic:           -40.158062
##########        Van der Waals:           -30.701515
##########  Ligand Polar Desolv:            10.393182
########## Ligand Apolar Desolv:            -4.835732
##########      Internal Energy:             0.000000
##########      Receptor Energy: 0.0
########## Receptor Desolvation:             0.000000
########## Receptor Hydrophobic:             0.000000
##########         Total Energy: -65.3
##########        Ligand Charge:             1.000000
##########            Arbitrary:    +999.9990
##########     heavy atom count:   36
##########           pose count:    1
##########        Ligand Energy:             0.000000
# num electro vdwattr vdwrepu polsolv apolsol rdesolv rhydroe totalscore fullpol fullapo
#   1    0.24   -2.38    2.87   -0.52   -0.19    0.00    0.00       0.01   -1.28   -0.48
#   2   -0.36   -1.73    0.68    0.49   -0.11    0.00    0.00      -1.02    1.57   -0.34
#   3    0.42   -0.99    0.20   -0.42   -0.10    0.00    0.00      -0.88   -1.68   -0.40
#   4    0.08   -0.37    0.02   -0.03   -0.04    0.00    0.00      -0.34   -0.13   -0.20
#   5   -0.10   -0.33    0.02    0.23   -0.06    0.00    0.00      -0.24    1.17   -0.32
#   6    3.86   -0.44    0.02   -1.54    0.45    0.00    0.00       2.35  -10.24    3.01
#   7   -0.33   -0.39    0.05    0.14   -0.07    0.00    0.00      -0.60    0.88   -0.41
#   8    2.50   -0.35    0.02   -0.68   -0.05    0.00    0.00       1.44   -3.57   -0.24
#   9   -0.51   -0.46    0.03    0.50   -0.05    0.00    0.00      -0.49    2.25   -0.23
#  10    3.03   -0.43    0.01   -0.96   -0.05    0.00    0.00       1.60   -3.94   -0.22
#  11   -0.64   -0.37    0.02    0.15   -0.08    0.00    0.00      -0.92    0.77   -0.40
#  12   20.18   -1.98    2.70   -5.79    0.21    0.00    0.00      15.33  -17.05    0.63
#  13  -25.38   -0.19    0.12    4.85    0.16    0.00    0.00     -20.44   16.82    0.56
#  14  -16.78   -0.03    0.00    4.49    0.16    0.00    0.00     -12.16   16.16    0.56
#  15   -1.47   -1.44    0.69    0.82   -0.15    0.00    0.00      -1.56    2.13   -0.40
#  16    3.36   -1.28    0.18   -0.97   -0.14    0.00    0.00       1.14   -2.63   -0.37
#  17    1.12   -1.45    0.35   -0.49   -0.15    0.00    0.00      -0.63   -1.45   -0.43
#  18    0.36   -1.37    0.15   -0.56   -0.14    0.00    0.00      -1.57   -1.43   -0.37
#  19    0.77   -2.29    0.75   -0.82   -0.21    0.00    0.00      -1.80   -1.65   -0.42
#  20    1.60   -2.22    0.85   -1.18   -0.23    0.00    0.00      -1.17   -2.40   -0.47
#  21    1.77   -1.74    0.69   -0.71   -0.20    0.00    0.00      -0.18   -1.63   -0.45
#  22    0.80   -1.58    0.32   -0.35   -0.15    0.00    0.00      -0.97   -0.87   -0.38
#  23    0.79   -1.87    0.63   -0.50   -0.22    0.00    0.00      -1.17   -0.98   -0.44
#  24    0.96   -2.08    0.41   -0.88   -0.27    0.00    0.00      -1.87   -1.52   -0.47
#  25    0.59   -2.14    0.36   -0.63   -0.28    0.00    0.00      -2.10   -1.06   -0.47
#  26    1.05   -1.95    0.43   -0.68   -0.24    0.00    0.00      -1.39   -1.34   -0.47
#  27   -0.45   -1.70    0.28    0.07   -0.14    0.00    0.00      -1.94    0.16   -0.33
#  28   -0.14   -1.54    0.74   -0.30   -0.16    0.00    0.00      -1.39   -0.80   -0.44
#  29   -0.24   -0.30    0.01    0.18   -0.09    0.00    0.00      -0.44    1.02   -0.53
#  30    0.93   -0.52    0.03   -0.56    0.36    0.00    0.00       0.24   -2.66    1.71
#  31   -0.39   -0.88    0.23    0.21   -0.15    0.00    0.00      -0.99    0.96   -0.69
#  32    0.26   -1.20    0.75   -0.33   -0.09    0.00    0.00      -0.61   -1.51   -0.41
#  33    0.01   -1.02    0.38    0.12   -0.12    0.00    0.00      -0.62    0.47   -0.47
#  34    0.27   -1.04    0.33   -0.42   -0.13    0.00    0.00      -0.99   -1.44   -0.46
#  35   -0.71   -0.65    0.05    0.18   -0.17    0.00    0.00      -1.31    0.68   -0.65
#  36    0.49   -0.75    0.05    0.62    0.15    0.00    0.00       0.56    1.86    0.45
#  37    0.02   -1.37    1.10   -0.01   -0.10    0.00    0.00      -0.36   -0.04   -0.46
#  38    0.31   -1.47    0.53   -0.59   -0.13    0.00    0.00      -1.36   -2.08   -0.46
#  39   -0.72   -0.15    0.01    0.30   -0.04    0.00    0.00      -0.60    1.88   -0.23
#  40   -0.04   -0.22    0.04    0.14   -0.06    0.00    0.00      -0.14    0.65   -0.28
#  41   -0.08   -0.06    0.00    0.03   -0.01    0.00    0.00      -0.12    0.55   -0.26
#  42    0.14   -0.40    0.25    0.18   -0.05    0.00    0.00       0.12    0.99   -0.28
#  43   -0.38   -0.07    0.00    0.05   -0.02    0.00    0.00      -0.42    0.67   -0.27
#  44   -1.61   -0.09    0.00    0.32   -0.02    0.00    0.00      -1.40    3.62   -0.28
#  45   -2.40   -0.13    0.01    0.30   -0.03    0.00    0.00      -2.26    2.44   -0.28
#  46   -1.93   -0.13    0.01    0.68   -0.03    0.00    0.00      -1.41    6.04   -0.28
#  47   -2.27   -0.15    0.00    0.58   -0.03    0.00    0.00      -1.86    4.48   -0.22
#  48   -2.63   -0.18    0.01    0.54   -0.05    0.00    0.00      -2.31    2.86   -0.28
#  49   -1.50   -0.10    0.00    0.11   -0.02    0.00    0.00      -1.51    1.22   -0.23
#  50   -0.30   -0.21    0.05    0.16   -0.04    0.00    0.00      -0.34    1.07   -0.28
#  51   -3.84   -0.42    0.21    1.59   -0.06    0.00    0.00      -2.51    6.28   -0.22
#  52   -5.44   -0.86    0.85    3.14   -0.13    0.00    0.00      -2.44    6.72   -0.28
#  53   -1.71   -0.45    0.28    1.04   -0.06    0.00    0.00      -0.90    4.84   -0.28
#  54   -1.51   -1.21    1.86    0.05   -0.12    0.00    0.00      -0.93    0.11   -0.27
#  55   -2.18   -0.74    0.45    0.72   -0.14    0.00    0.00      -1.89    1.46   -0.28
#  56   -3.31   -0.54    0.38    1.59   -0.09    0.00    0.00      -1.97    5.08   -0.28
#  57   -1.99   -0.37    0.06    1.26   -0.11    0.00    0.00      -1.14    3.25   -0.28
#  58   -0.77   -0.62    0.36    1.31   -0.16    0.00    0.00       0.12    2.35   -0.28
#  59   -0.98   -0.79    0.45    0.89   -0.16    0.00    0.00      -0.59    1.57   -0.28
#  60   -1.38   -0.69    0.65    0.35   -0.12    0.00    0.00      -1.19    0.79   -0.28
#  61   -0.61   -0.13    0.01    0.10   -0.03    0.00    0.00      -0.66    0.84   -0.28
#  62   -0.19   -0.06    0.00    0.06   -0.02    0.00    0.00      -0.21    0.88   -0.26
#  63   -0.21   -0.21    0.08    0.58   -0.06    0.00    0.00       0.20    2.93   -0.28
#  64   -0.15   -0.33    0.11    0.24   -0.08    0.00    0.00      -0.21    0.78   -0.28
#  65   -0.22   -0.14    0.03    0.36   -0.03    0.00    0.00       0.00    3.11   -0.28
#  66   -0.19   -0.26    0.05    0.58   -0.07    0.00    0.00       0.11    2.29   -0.28

@<TRIPOS>MOLECULE
          T537827        86
   66    71     0     0     0



@<TRIPOS>ATOM
      1 F1         -1.1459   -10.3956    93.4731 F          1          -0.1291
      2 C1         -1.6903    -9.9380    92.3243 C.ar       1           0.1765
      3 C2         -1.1557    -8.8286    91.7015 C.ar       1          -0.1851
      4 C3         -0.0051    -7.8970    91.9978 C.3        1          -0.0328
      5 C4          1.3164    -8.6680    92.0132 C.3        1           0.0637
      6 N1          2.4199    -7.7425    92.3029 N.3        1          -0.5412
      7 C5          3.7160    -8.4289    92.2275 C.3        1           0.0574
      8 C6          4.8451    -7.4088    92.3902 C.3        1          -0.1377
      9 C7          4.6980    -6.7031    93.7411 C.3        1           0.0228
     10 C8          3.3211    -6.0373    93.8129 C.3        1          -0.1377
     11 C9          2.2360    -7.0970    93.6092 C.3        1           0.0524
     12 N2          5.7450    -5.6817    93.8778 N.4        1          -0.5064
     13 H1          5.8729    -5.2108    92.9946 H          1           0.4277
     14 H2          5.4709    -5.0109    94.5800 H          1           0.4273
     15 C10         7.0048    -6.3224    94.2780 C.3        1           0.0450
     16 C11         6.8138    -7.0258    95.5972 C.ar       1          -0.1637
     17 C12         7.3104    -8.3012    95.7761 C.ar       1          -0.0810
     18 C13         7.1335    -8.9500    96.9964 C.ar       1          -0.0343
     19 C14         6.4554    -8.3064    98.0301 C.ar       1          -0.0658
     20 C15         5.9632    -7.0313    97.8401 C.ar       1          -0.1083
     21 C16         6.1464    -6.3898    96.6281 C.ar       1          -0.0896
     22 C17         7.6645   -10.3211    97.1947 C.ar       1          -0.1027
     23 C18         8.5983   -10.5712    98.1981 C.ar       1          -0.0766
     24 C19         9.0887   -11.8484    98.3787 C.ar       1          -0.1257
     25 C20         8.6555   -12.8810    97.5662 C.ar       1          -0.0768
     26 C21         7.7293   -12.6409    96.5681 C.ar       1          -0.1493
     27 C22         7.2263   -11.3665    96.3810 C.ar       1           0.1131
     28 F2          6.3172   -11.1331    95.4093 F          1          -0.1331
     29 C23        -0.0233    -6.8814    90.8352 C.3        1           0.1222
     30 N3         -1.1477    -7.2873    89.9789 N.am       1          -0.5252
     31 C24        -1.7337    -8.3886    90.5324 C.ar       1           0.1862
     32 C25        -2.8390    -9.0294    89.9623 C.ar       1          -0.1394
     33 C26        -3.3759    -8.4796    88.7177 C.2        1          -0.0077
     34 C27        -2.7647    -7.3816    88.1976 C.2        1          -0.2140
     35 C28        -1.6506    -6.7883    88.8302 C.2        1           0.5467
     36 O1         -1.1334    -5.8047    88.3294 O.2        1          -0.5274
     37 C29        -3.3692   -10.1519    90.6057 C.ar       1          -0.0144
     38 C30        -2.7883   -10.5901    91.7652 C.ar       1          -0.1838
     39 H3         -0.1606    -7.3908    92.9505 H          1           0.1038
     40 H4          1.2779    -9.4397    92.7820 H          1           0.0584
     41 H5          1.4775    -9.1321    91.0402 H          1           0.0874
     42 H6          3.7803    -9.1718    93.0226 H          1           0.0497
     43 H7          3.8093    -8.9230    91.2605 H          1           0.0982
     44 H8          5.8065    -7.9207    92.3497 H          1           0.0944
     45 H9          4.7896    -6.6735    91.5875 H          1           0.0980
     46 H10         4.7924    -7.4327    94.5453 H          1           0.1378
     47 H11         3.1937    -5.5691    94.7892 H          1           0.0937
     48 H12         3.2416    -5.2804    93.0327 H          1           0.0981
     49 H13         1.2548    -6.6239    93.6455 H          1           0.0980
     50 H14         2.3074    -7.8462    94.3976 H          1           0.0508
     51 H15         7.3009    -7.0471    93.5195 H          1           0.1398
     52 H16         7.7816    -5.5646    94.3796 H          1           0.1373
     53 H17         7.8348    -8.7955    94.9716 H          1           0.1334
     54 H18         6.3152    -8.8049    98.9779 H          1           0.1355
     55 H19         5.4376    -6.5316    98.6403 H          1           0.1400
     56 H20         5.7630    -5.3904    96.4851 H          1           0.1336
     57 H21         8.9382    -9.7666    98.8332 H          1           0.1338
     58 H22         9.8128   -12.0424    99.1562 H          1           0.1371
     59 H23         9.0425   -13.8787    97.7120 H          1           0.1402
     60 H24         7.3952   -13.4506    95.9364 H          1           0.1429
     61 H25        -0.1847    -5.8734    91.2172 H          1           0.0915
     62 H26         0.9121    -6.9292    90.2776 H          1           0.0977
     63 H27        -4.2272    -8.9297    88.2289 H          1           0.1553
     64 H28        -3.1396    -6.9542    87.2793 H          1           0.1608
     65 H29        -4.2220   -10.6688    90.1910 H          1           0.1528
     66 H30        -3.1932   -11.4597    92.2613 H          1           0.1474
@<TRIPOS>BOND
     1    1    2 1
     2    2   38 ar
     3    2    3 ar
     4    3   31 ar
     5    3    4 1
     6    4    5 1
     7    4   29 1
     8    4   39 1
     9    5    6 1
    10    5   40 1
    11    5   41 1
    12    6   11 1
    13    6    7 1
    14    7    8 1
    15    7   42 1
    16    7   43 1
    17    8    9 1
    18    8   44 1
    19    8   45 1
    20    9   10 1
    21    9   12 1
    22    9   46 1
    23   10   11 1
    24   10   47 1
    25   10   48 1
    26   11   49 1
    27   11   50 1
    28   12   13 1
    29   12   14 1
    30   12   15 1
    31   15   16 1
    32   15   51 1
    33   15   52 1
    34   16   21 ar
    35   16   17 ar
    36   17   18 ar
    37   17   53 1
    38   18   19 ar
    39   18   22 1
    40   19   20 ar
    41   19   54 1
    42   20   21 ar
    43   20   55 1
    44   21   56 1
    45   22   27 ar
    46   22   23 ar
    47   23   24 ar
    48   23   57 1
    49   24   25 ar
    50   24   58 1
    51   25   26 ar
    52   25   59 1
    53   26   27 ar
    54   26   60 1
    55   27   28 1
    56   29   30 1
    57   29   61 1
    58   29   62 1
    59   30   35 am
    60   30   31 1
    61   31   32 ar
    62   32   33 1
    63   32   37 ar
    64   33   34 2
    65   33   63 1
    66   34   35 1
    67   34   64 1
    68   35   36 2
    69   37   38 ar
    70   37   65 1
    71   38   66 1
##########                 Name:              T533810
##########          Protonation:                   99
##########               SMILES:   1[nH]c2c(c1)c(ccc2)/C=C\C(=O)N[C@H]3CC[C@H](CC3)CC[NH+]4CCc5c(ccc(c5)C#N)CC4
##########            Long Name:   azepin-3-ium-3-yl)ethyl]cyclohexyl]-3-(2-methyl-1H-indol-4-yl)prop-2-enamide
##########          FlexRecCode: 1
##########               Number:                  378
##########   Ligand Source File: /raidb/db2/rgc/tcams/tcams-0001140.db2.gz
##########           GlobalRank: 280
##########                 Rank:                    1
##########               Setnum:                    5
##########             Matchnum:                 3452
##########                Cloud:                    1
##########        Electrostatic:           -39.929054
##########        Van der Waals:           -29.548485
##########  Ligand Polar Desolv:             8.482346
########## Ligand Apolar Desolv:            -4.291464
##########      Internal Energy:             0.000000
##########      Receptor Energy: 0.0
########## Receptor Desolvation:             0.000000
########## Receptor Hydrophobic:             0.000000
##########         Total Energy: -65.29
##########        Ligand Charge:             1.000000
##########            Arbitrary:    +999.9990
##########     heavy atom count:   36
##########           pose count:    1
##########        Ligand Energy:             0.000000
# num electro vdwattr vdwrepu polsolv apolsol rdesolv rhydroe totalscore fullpol fullapo
#   1    2.43   -0.66    0.06   -0.21   -0.07    0.00    0.00       1.54   -0.63   -0.21
#   2   -1.34   -1.05    0.12    0.07   -0.24    0.00    0.00      -2.44    0.23   -0.76
#   3    1.12   -0.99    0.27   -0.12   -0.11    0.00    0.00       0.18   -0.53   -0.49
#   4    0.27   -1.18    0.30   -0.01   -0.11    0.00    0.00      -0.73   -0.05   -0.42
#   5    0.11   -0.94    0.18   -0.01   -0.08    0.00    0.00      -0.74   -0.05   -0.31
#   6   -0.01   -0.67    0.14   -0.07   -0.07    0.00    0.00      -0.68   -0.43   -0.45
#   7    0.37   -0.23    0.01   -0.16   -0.04    0.00    0.00      -0.06   -1.79   -0.45
#   8   -0.78   -0.21    0.00    0.31   -0.05    0.00    0.00      -0.73    3.55   -0.59
#   9    0.62   -0.24    0.01   -0.04    0.03    0.00    0.00       0.39   -0.33    0.29
#  10    1.19   -0.20    0.00   -0.72    0.15    0.00    0.00       0.42   -8.45    1.72
#  11   -0.21   -0.18    0.00    0.18   -0.03    0.00    0.00      -0.24    1.60   -0.28
#  12    0.22   -0.61    0.11   -0.34   -0.06    0.00    0.00      -0.67   -1.41   -0.24
#  13    0.31   -0.72    0.15   -0.49   -0.05    0.00    0.00      -0.81   -1.87   -0.20
#  14    0.68   -0.35    0.02   -0.36   -0.03    0.00    0.00      -0.03   -1.78   -0.15
#  15    3.22   -0.54    0.07   -1.08   -0.04    0.00    0.00       1.63   -4.56   -0.18
#  16    0.45   -0.43    0.04   -0.02   -0.07    0.00    0.00      -0.03   -0.08   -0.33
#  17   12.08   -1.11    0.61   -3.22    0.05    0.00    0.00       8.40  -12.99    0.20
#  18  -21.78   -0.11    0.03    4.81    0.13    0.00    0.00     -16.91   18.35    0.48
#  19    0.21   -0.50    0.05    0.03   -0.09    0.00    0.00      -0.29    0.14   -0.37
#  20    0.96   -0.56    0.08   -0.78   -0.06    0.00    0.00      -0.36   -3.28   -0.24
#  21    0.97   -1.03    0.12   -0.24   -0.10    0.00    0.00      -0.28   -0.79   -0.35
#  22    0.83   -1.20    0.17   -0.75   -0.15    0.00    0.00      -1.09   -2.36   -0.46
#  23    0.65   -1.38    0.20   -0.55   -0.17    0.00    0.00      -1.25   -1.49   -0.45
#  24    0.05   -1.75    0.33   -0.63   -0.19    0.00    0.00      -2.18   -1.31   -0.40
#  25    1.03   -1.77    0.37   -0.55   -0.19    0.00    0.00      -1.11   -1.24   -0.44
#  26    2.02   -1.18    0.13   -0.69   -0.13    0.00    0.00       0.16   -1.90   -0.35
#  27    2.92   -0.91    0.13   -1.18   -0.10    0.00    0.00       0.86   -2.90   -0.24
#  28    0.48   -0.62    0.07   -0.05   -0.10    0.00    0.00      -0.21   -0.16   -0.36
#  29   -4.45   -2.42    0.52    1.07   -0.84    0.00    0.00      -6.13    1.85   -1.46
#  30    9.37   -4.35    2.06   -0.60    0.45    0.00    0.00       6.93   -0.95    0.71
#  31    0.49   -0.13    0.00   -0.23   -0.02    0.00    0.00       0.12   -2.81   -0.21
#  32    0.17   -0.11    0.00   -0.14   -0.02    0.00    0.00      -0.10   -2.11   -0.24
#  33    0.16   -1.15    0.12   -0.03   -0.11    0.00    0.00      -1.02   -0.09   -0.31
#  34    0.26   -2.64    1.28   -0.01   -0.22    0.00    0.00      -1.33   -0.02   -0.47
#  35    0.37   -3.50    3.16    0.00   -0.23    0.00    0.00      -0.18    0.01   -0.48
#  36   -0.34   -1.78    0.47   -0.04   -0.29    0.00    0.00      -2.00   -0.11   -0.78
#  37    5.79   -2.50    1.47   -0.44    0.45    0.00    0.00       4.78   -1.11    1.13
#  38   -1.40   -0.10    0.00    0.06   -0.02    0.00    0.00      -1.46    0.73   -0.28
#  39   -2.63   -0.25    0.02    0.29   -0.09    0.00    0.00      -2.66    0.94   -0.28
#  40   -2.28   -0.37    0.11    0.19   -0.08    0.00    0.00      -2.42    0.68   -0.28
#  41   -0.80   -0.13    0.03    0.09   -0.03    0.00    0.00      -0.84    0.84   -0.28
#  42   -0.33   -0.28    0.20    0.25   -0.04    0.00    0.00      -0.21    1.62   -0.28
#  43   -0.16   -0.03    0.00    0.11   -0.01    0.00    0.00      -0.09    3.48   -0.28
#  44   -0.77    0.00    0.00    0.28    0.02    0.00    0.00      -0.47    7.83    0.45
#  45   -0.11   -0.05    0.00   -0.02   -0.01    0.00    0.00      -0.19   -0.32   -0.26
#  46   -0.11   -0.37    0.15   -0.10   -0.06    0.00    0.00      -0.48   -0.42   -0.28
#  47   -0.10   -0.20    0.03    0.11   -0.05    0.00    0.00      -0.21    0.61   -0.28
#  48   -0.21   -0.13    0.01    0.16   -0.03    0.00    0.00      -0.20    1.23   -0.26
#  49   -0.21   -0.62    0.40    0.33   -0.10    0.00    0.00      -0.21    0.96   -0.28
#  50   -0.61   -0.13    0.02    0.24   -0.04    0.00    0.00      -0.52    1.88   -0.28
#  51   -1.66   -0.09    0.00    0.36   -0.02    0.00    0.00      -1.41    4.25   -0.28
#  52   -3.31   -0.49    0.25    0.91   -0.06    0.00    0.00      -2.70    3.16   -0.22
#  53   -3.03   -0.13    0.01    0.71   -0.04    0.00    0.00      -2.49    4.90   -0.28
#  54   -1.61   -0.07    0.00    0.44   -0.01    0.00    0.00      -1.25    6.58   -0.21
#  55   -2.22   -0.08    0.00    0.34   -0.02    0.00    0.00      -1.99    4.15   -0.26
#  56   -3.58   -0.30    0.09    1.75   -0.06    0.00    0.00      -2.10    7.58   -0.27
#  57   -0.52   -0.24    0.09    0.61   -0.04    0.00    0.00      -0.12    3.77   -0.27
#  58   -0.44   -0.19    0.04    0.73   -0.03    0.00    0.00       0.09    4.99   -0.24
#  59   -0.75   -0.20    0.02    0.69   -0.05    0.00    0.00      -0.30    3.61   -0.28
#  60   -1.40   -0.22    0.01    0.25   -0.06    0.00    0.00      -1.42    1.12   -0.28
#  61   -2.64   -0.64    0.71    0.92   -0.11    0.00    0.00      -1.76    2.35   -0.28
#  62   -3.48   -0.40    0.12    1.05   -0.10    0.00    0.00      -2.80    2.90   -0.27
#  63   -4.16   -0.55    0.38    2.00   -0.10    0.00    0.00      -2.43    4.96   -0.24
#  64   -4.57   -0.20    0.02    1.18   -0.04    0.00    0.00      -3.62    6.06   -0.20
#  65   -2.24   -0.12    0.00    0.42   -0.03    0.00    0.00      -1.97    3.96   -0.26
#  66   -0.27   -0.03    0.00    0.08   -0.01    0.00    0.00      -0.22    2.35   -0.22
#  67   -0.23   -0.04    0.00    0.17   -0.01    0.00    0.00      -0.11    4.04   -0.22
#  68   -0.11   -0.04    0.00    0.05   -0.01    0.00    0.00      -0.11    1.21   -0.28
#  69   -0.08   -0.02    0.00    0.03   -0.01    0.00    0.00      -0.08    0.91   -0.28
#  70   -0.22   -0.23    0.03    0.05   -0.06    0.00    0.00      -0.43    0.24   -0.26
#  71   -0.23   -1.05    1.05    0.15   -0.14    0.00    0.00      -0.23    0.29   -0.28
#  72   -0.41   -1.53    3.34    0.10   -0.15    0.00    0.00       1.36    0.20   -0.28
#  73  -13.95   -0.11    0.02    0.76    0.23    0.00    0.00     -13.05    1.94    0.59

@<TRIPOS>MOLECULE
          T533810        99
   73    77     0     0     0



@<TRIPOS>ATOM
      1 C1          8.5218    -5.4828    87.7416 C.3        1          -0.0964
      2 C2          7.3642    -5.5160    86.7772 C.2        1           0.0859
      3 C3          6.8745    -6.6232    86.1921 C.2        1          -0.2137
      4 C4          5.7956    -6.2338    85.3614 C.ar       1          -0.0716
      5 C5          4.9119    -6.9404    84.5144 C.ar       1          -0.0392
      6 C6          5.0257    -8.3962    84.3737 C.2        1           0.0053
      7 C7          3.9853    -9.1910    84.7096 C.2        1          -0.2347
      8 C8          2.8364    -8.6305    85.4183 C.2        1           0.5399
      9 O1          1.7277    -8.6842    84.9186 O.2        1          -0.5137
     10 N1          3.0045    -8.0541    86.6250 N.am       1          -0.7274
     11 C9          1.8529    -7.4924    87.3352 C.3        1           0.1468
     12 C10         2.0792    -5.9979    87.5723 C.3        1          -0.1323
     13 C11         3.3426    -5.8006    88.4125 C.3        1          -0.1113
     14 C12         3.1768    -6.5109    89.7574 C.3        1          -0.0834
     15 C13         4.4400    -6.3134    90.5977 C.3        1          -0.1456
     16 C14         4.1168    -6.5661    92.0717 C.3        1          -0.0204
     17 N2          5.3297    -6.3765    92.8784 N.4        1          -0.3750
     18 H1          5.8294    -5.5782    92.5160 H          1           0.4178
     19 C15         6.1773    -7.5609    92.7233 C.3        1          -0.0098
     20 C16         5.7771    -8.5834    93.7890 C.3        1          -0.1006
     21 C17         6.5817    -8.3759    95.0425 C.ar       1          -0.0791
     22 C18         7.2202    -9.4951    95.5724 C.ar       1          -0.1001
     23 C19         7.9412    -9.4125    96.7404 C.ar       1          -0.0602
     24 C20         8.0277    -8.1885    97.4076 C.ar       1          -0.0032
     25 C21         7.4026    -7.0699    96.8657 C.ar       1          -0.0573
     26 C22         6.6988    -7.1575    95.6692 C.ar       1          -0.1047
     27 C23         6.1695    -5.8575    95.1175 C.3        1          -0.0966
     28 C24         4.9250    -6.0814    94.2632 C.3        1          -0.0170
     29 C25         8.7535    -8.0857    98.6376 C.1        1           0.2311
     30 N3          9.3293    -8.0042    99.6136 N.1        1          -0.3824
     31 C26         2.9504    -8.0053    89.5203 C.3        1          -0.1207
     32 C27         1.6870    -8.2028    88.6801 C.3        1          -0.1291
     33 C28         3.9299    -6.2393    83.8138 C.ar       1          -0.0681
     34 C29         3.8245    -4.8675    83.9485 C.ar       1          -0.1084
     35 C30         4.6836    -4.1693    84.7738 C.ar       1          -0.1131
     36 C31         5.6725    -4.8394    85.4853 C.ar       1           0.0816
     37 N4          6.6478    -4.4259    86.3678 N.pl3      1          -0.5891
     38 H2          8.9030    -6.4936    87.8866 H          1           0.0781
     39 H3          9.3127    -4.8505    87.3381 H          1           0.0861
     40 H4          8.1869    -5.0802    88.6974 H          1           0.0695
     41 H5          7.2391    -7.6302    86.3308 H          1           0.1397
     42 H6          5.9408    -8.8329    84.0015 H          1           0.1352
     43 H7          4.0031   -10.2403    84.4546 H          1           0.1282
     44 H8          3.8880    -8.0113    87.0231 H          1           0.3931
     45 H9          0.9528    -7.6330    86.7365 H          1           0.0914
     46 H10         2.1974    -5.4918    86.6142 H          1           0.0745
     47 H11         1.2224    -5.5800    88.1007 H          1           0.0722
     48 H12         4.1993    -6.2185    87.8840 H          1           0.0673
     49 H13         3.5039    -4.7359    88.5815 H          1           0.0656
     50 H14         2.3199    -6.0929    90.2859 H          1           0.0839
     51 H15         5.2081    -7.0136    90.2690 H          1           0.0879
     52 H16         4.8023    -5.2927    90.4748 H          1           0.0902
     53 H17         3.3487    -5.8660    92.4003 H          1           0.1314
     54 H18         3.7546    -7.5868    92.1945 H          1           0.1347
     55 H19         6.0322    -7.9887    91.7314 H          1           0.1309
     56 H20         7.2231    -7.2836    92.8553 H          1           0.1383
     57 H21         4.7175    -8.4692    94.0179 H          1           0.1224
     58 H22         5.9558    -9.5891    93.4084 H          1           0.0999
     59 H23         7.1481   -10.4418    95.0578 H          1           0.1438
     60 H24         8.4357   -10.2862    97.1384 H          1           0.1430
     61 H25         7.4648    -6.1222    97.3800 H          1           0.1422
     62 H26         5.9188    -5.1939    95.9451 H          1           0.1209
     63 H27         6.9408    -5.3883    94.5068 H          1           0.0997
     64 H28         4.3056    -5.1846    94.2776 H          1           0.1408
     65 H29         4.3583    -6.9222    94.6633 H          1           0.1313
     66 H30         3.8072    -8.4234    88.9920 H          1           0.0666
     67 H31         2.8322    -8.5115    90.4784 H          1           0.0646
     68 H32         0.8302    -7.7849    89.2086 H          1           0.0807
     69 H33         1.5257    -9.2674    88.5111 H          1           0.0749
     70 H34         3.2500    -6.7699    83.1637 H          1           0.1108
     71 H35         3.0609    -4.3352    83.4011 H          1           0.1227
     72 H36         4.5871    -3.0978    84.8670 H          1           0.1172
     73 H37         6.8021    -3.5109    86.6503 H          1           0.4162
@<TRIPOS>BOND
     1    1    2 1
     2    1   38 1
     3    1   39 1
     4    1   40 1
     5    2   37 1
     6    2    3 2
     7    3    4 1
     8    3   41 1
     9    4   36 ar
    10    4    5 ar
    11    5    6 1
    12    5   33 ar
    13    6    7 2
    14    6   42 1
    15    7    8 1
    16    7   43 1
    17    8    9 2
    18    8   10 am
    19   10   11 1
    20   10   44 1
    21   11   32 1
    22   11   12 1
    23   11   45 1
    24   12   13 1
    25   12   46 1
    26   12   47 1
    27   13   14 1
    28   13   48 1
    29   13   49 1
    30   14   15 1
    31   14   31 1
    32   14   50 1
    33   15   16 1
    34   15   51 1
    35   15   52 1
    36   16   17 1
    37   16   53 1
    38   16   54 1
    39   17   18 1
    40   17   28 1
    41   17   19 1
    42   19   20 1
    43   19   55 1
    44   19   56 1
    45   20   21 1
    46   20   57 1
    47   20   58 1
    48   21   26 ar
    49   21   22 ar
    50   22   23 ar
    51   22   59 1
    52   23   24 ar
    53   23   60 1
    54   24   25 ar
    55   24   29 1
    56   25   26 ar
    57   25   61 1
    58   26   27 1
    59   27   28 1
    60   27   62 1
    61   27   63 1
    62   28   64 1
    63   28   65 1
    64   29   30 3
    65   31   32 1
    66   31   66 1
    67   31   67 1
    68   32   68 1
    69   32   69 1
    70   33   34 ar
    71   33   70 1
    72   34   35 ar
    73   34   71 1
    74   35   36 ar
    75   35   72 1
    76   36   37 1
    77   37   73 1
##########                 Name:              T537114
##########          Protonation:                   41
##########               SMILES:   Cn1c2ccc(cc2n(c1=O)C)C[NH2+]CCNc3cc[nH+]c4c3ccc(c4)Cl
##########            Long Name:   -ium-4-yl)amino]ethyl-[(1,3-dimethyl-2-oxo-benzimidazol-5-yl)methyl]ammonium
##########          FlexRecCode: 1
##########               Number:                  196
##########   Ligand Source File: /raidb/db2/rgc/tcams/tcams-0001591.db2.gz
##########           GlobalRank: 280
##########                 Rank:                    1
##########               Setnum:                   88
##########             Matchnum:                 2777
##########                Cloud:                    1
##########        Electrostatic:           -56.752522
##########        Van der Waals:           -24.898046
##########  Ligand Polar Desolv:            19.749949
########## Ligand Apolar Desolv:            -3.387086
##########      Internal Energy:             0.000000
##########      Receptor Energy: 0.0
########## Receptor Desolvation:             0.000000
########## Receptor Hydrophobic:             0.000000
##########         Total Energy: -65.29
##########        Ligand Charge:             2.000000
##########            Arbitrary:    +999.9990
##########     heavy atom count:   28
##########           pose count:    1
##########        Ligand Energy:             0.000000
# num electro vdwattr vdwrepu polsolv apolsol rdesolv rhydroe totalscore fullpol fullapo
#   1   -1.41   -1.37    0.35    0.65   -0.32    0.00    0.00      -2.10    1.20   -0.59
#   2    5.61   -1.41    0.17   -2.93    0.73    0.00    0.00       2.16   -7.17    1.79
#   3   -4.84   -1.34    0.15    2.10   -0.88    0.00    0.00      -4.81    5.05   -2.12
#   4    3.85   -1.36    0.12   -0.98    0.23    0.00    0.00       1.87   -1.79    0.42
#   5    2.78   -1.23    0.11   -3.03    0.63    0.00    0.00      -0.73   -8.60    1.79
#   6   -0.51   -1.13    0.26    0.58   -0.21    0.00    0.00      -1.01    1.60   -0.59
#   7   -0.67   -1.18    0.17    0.12   -0.22    0.00    0.00      -1.79    0.38   -0.73
#   8    0.61   -0.98    0.15   -0.47   -0.12    0.00    0.00      -0.81   -1.83   -0.46
#   9    2.97   -0.81    0.07   -0.84   -0.10    0.00    0.00       1.29   -3.21   -0.37
#  10   -1.26   -0.47    0.05    0.89   -0.09    0.00    0.00      -0.87    4.04   -0.42
#  11   15.64   -1.21    0.64   -6.78    0.19    0.00    0.00       8.48  -26.36    0.73
#  12  -13.76   -0.02    0.00    4.65    0.10    0.00    0.00      -9.03   25.48    0.57
#  13  -19.31   -0.07    0.01    7.99    0.18    0.00    0.00     -11.21   25.80    0.57
#  14    0.45   -0.50    0.07   -0.08   -0.09    0.00    0.00      -0.15   -0.37   -0.41
#  15   -1.38   -0.53    0.08    0.49   -0.09    0.00    0.00      -1.43    2.21   -0.39
#  16   13.12   -0.53    0.03   -5.74    0.31    0.00    0.00       7.19  -30.58    1.66
#  17   -8.13   -0.85    0.10    3.96   -0.19    0.00    0.00      -5.12   14.94   -0.72
#  18    3.25   -1.22    0.16   -1.69   -0.14    0.00    0.00       0.37   -4.90   -0.40
#  19    0.62   -1.43    0.51   -0.14   -0.13    0.00    0.00      -0.57   -0.47   -0.45
#  20    0.47   -3.49    4.80   -1.77   -0.17    0.00    0.00      -0.16   -4.79   -0.45
#  21   -0.77   -4.35    5.43   -0.27   -0.14    0.00    0.00      -0.10   -0.56   -0.30
#  22   -0.02   -8.98    8.87   -1.60   -0.56    0.00    0.00      -2.29   -2.81   -0.99
#  23    4.27   -3.16    1.97   -2.24   -0.22    0.00    0.00       0.62   -4.55   -0.45
#  24   -5.99   -1.92    0.35    2.55   -0.32    0.00    0.00      -5.34    5.73   -0.73
#  25   18.53   -3.18    1.59   -8.80    0.46    0.00    0.00       8.59  -18.63    0.97
#  26  -21.24   -0.14    0.02    8.32    0.29    0.00    0.00     -12.75   16.73    0.58
#  27   -7.14   -1.98    0.59    4.00   -0.40    0.00    0.00      -4.93    9.67   -0.96
#  28    5.68   -1.01    0.15   -3.31   -0.13    0.00    0.00       1.37  -10.80   -0.44
#  29    1.81   -1.08    0.12   -0.64   -0.15    0.00    0.00       0.05   -1.91   -0.45
#  30    1.73   -1.32    0.17   -1.40   -0.18    0.00    0.00      -0.99   -3.76   -0.47
#  31   -1.52   -1.27    0.16    0.04   -0.26    0.00    0.00      -2.84    0.12   -0.73
#  32   -1.21   -0.50    0.21    0.45   -0.12    0.00    0.00      -1.16    1.07   -0.28
#  33   -1.80   -0.41    0.07    0.00   -0.13    0.00    0.00      -2.27   -0.01   -0.28
#  34   -1.53   -0.58    0.26    1.09   -0.12    0.00    0.00      -0.89    2.44   -0.28
#  35   -0.34   -0.30    0.07   -0.01   -0.06    0.00    0.00      -0.65   -0.06   -0.27
#  36   -0.88   -0.26    0.03    0.87   -0.07    0.00    0.00      -0.30    3.50   -0.28
#  37   -0.21   -0.90    1.15    1.03   -0.11    0.00    0.00       0.96    2.61   -0.28
#  38   -0.64   -0.17    0.03    1.14   -0.04    0.00    0.00       0.31    8.12   -0.28
#  39   -1.88   -0.08    0.00    0.83   -0.02    0.00    0.00      -1.15    9.84   -0.28
#  40   -4.13   -0.17    0.03    1.24   -0.04    0.00    0.00      -3.08    9.27   -0.28
#  41   -2.33   -0.29    0.12    1.72   -0.05    0.00    0.00      -0.84    9.35   -0.28
#  42   -1.76   -0.06    0.00    0.46   -0.01    0.00    0.00      -1.37    9.13   -0.28
#  43   -2.38   -0.37    0.15    2.04   -0.07    0.00    0.00      -0.64    7.52   -0.27
#  44   -1.23   -0.09    0.01    0.71   -0.03    0.00    0.00      -0.63    7.68   -0.27
#  45   -6.56    0.00    0.00    1.20    0.03    0.00    0.00      -5.34   20.47    0.45
#  46   -1.75   -0.13    0.01    1.19   -0.03    0.00    0.00      -0.70    8.96   -0.22
#  47   -0.57   -0.89    1.47    0.95   -0.08    0.00    0.00       0.88    3.41   -0.28
#  48   -4.83   -0.62    0.23    1.95   -0.13    0.00    0.00      -3.40    4.09   -0.28
#  49   -6.31   -0.57    0.41    4.37   -0.10    0.00    0.00      -2.20   11.66   -0.28
#  50   -2.78   -0.14    0.01    1.70   -0.03    0.00    0.00      -1.25   11.85   -0.24
#  51   -4.40   -0.24    0.02    2.31   -0.07    0.00    0.00      -2.38    9.15   -0.28
#  52   -2.66   -0.32    0.06    0.89   -0.08    0.00    0.00      -2.12    2.98   -0.28

@<TRIPOS>MOLECULE
          T537114        41
   52    55     0     0     0



@<TRIPOS>ATOM
      1 C1          8.3358    -9.1236    98.5938 C.3        1           0.0902
      2 N1          7.8630    -9.5984    97.2909 N.am       1          -0.5382
      3 C2          7.8987   -10.8721    96.8561 C.2        1           0.6770
      4 O1          8.3320   -11.8168    97.4891 O.2        1          -0.5211
      5 N2          7.3816   -10.9421    95.6151 N.am       1          -0.5410
      6 C3          7.2482   -12.1583    94.8092 C.3        1           0.0920
      7 C4          6.9942    -9.6613    95.2281 C.ar       1           0.0955
      8 C5          6.4144    -9.1495    94.0773 C.ar       1          -0.0764
      9 C6          6.1415    -7.7986    93.9874 C.ar       1          -0.1744
     10 C7          5.5110    -7.2422    92.7369 C.3        1           0.0557
     11 N3          6.5639    -6.8431    91.7936 N.4        1          -0.5058
     12 H1          6.1418    -6.4706    90.9562 H          1           0.4319
     13 H2          7.1468    -6.1378    92.2188 H          1           0.4328
     14 C8          7.3829    -8.0132    91.4501 C.3        1          -0.0245
     15 C9          8.4796    -7.5975    90.4675 C.3        1           0.0766
     16 N4          7.8667    -7.0566    89.2518 N.pl3      1          -0.6896
     17 C10         8.5284    -6.0869    88.5142 C.ar       1           0.3558
     18 C11         7.8275    -5.2505    87.6127 C.ar       1          -0.1287
     19 C12         6.4424    -5.3706    87.4330 C.ar       1          -0.0515
     20 C13         5.8027    -4.5472    86.5565 C.ar       1          -0.0941
     21 C14         6.5088    -3.5861    85.8349 C.ar       1           0.0438
     22 Cl1         5.6596    -2.5549    84.7263 Cl         1           0.0034
     23 C15         7.8552    -3.4434    85.9868 C.ar       1          -0.1384
     24 C16         8.5480    -4.2756    86.8824 C.ar       1           0.1827
     25 N5          9.8702    -4.1566    87.0508 N.ar       1          -0.4950
     26 H3         10.3527    -3.4845    86.5445 H          1           0.4513
     27 C17        10.5309    -4.9262    87.8843 C.ar       1           0.2459
     28 C18         9.8962    -5.9020    88.6405 C.ar       1          -0.2644
     29 C19         6.4443    -6.9536    95.0413 C.ar       1          -0.0813
     30 C20         7.0218    -7.4542    96.1916 C.ar       1          -0.1016
     31 C21         7.2945    -8.8100    96.2933 C.ar       1           0.1355
     32 H4          8.7309    -9.9636    99.1650 H          1           0.0798
     33 H5          9.1214    -8.3824    98.4471 H          1           0.0979
     34 H6          7.5068    -8.6716    99.1385 H          1           0.0906
     35 H7          6.7959   -11.9102    93.8490 H          1           0.1033
     36 H8          8.2333   -12.5950    94.6447 H          1           0.0773
     37 H9          6.6163   -12.8747    95.3343 H          1           0.0798
     38 H10         6.1771    -9.8056    93.2529 H          1           0.1384
     39 H11         4.8813    -8.0043    92.2774 H          1           0.1446
     40 H12         4.9033    -6.3740    92.9917 H          1           0.1417
     41 H13         7.8389    -8.4158    92.3545 H          1           0.1467
     42 H14         6.7533    -8.7752    90.9905 H          1           0.1459
     43 H15         9.1093    -6.8356    90.9268 H          1           0.1073
     44 H16         9.0873    -8.4658    90.2127 H          1           0.1079
     45 H17         6.9978    -7.3769    88.9629 H          1           0.4252
     46 H18         5.8856    -6.1124    87.9864 H          1           0.1543
     47 H19         4.7356    -4.6406    86.4187 H          1           0.1658
     48 H20         8.3881    -2.6935    85.4210 H          1           0.1714
     49 H21        11.5977    -4.7936    87.9876 H          1           0.2130
     50 H22        10.4662    -6.5170    89.3212 H          1           0.1778
     51 H23         6.2282    -5.8983    94.9635 H          1           0.1418
     52 H24         7.2570    -6.7919    97.0117 H          1           0.1455
@<TRIPOS>BOND
     1    1    2 1
     2    1   32 1
     3    1   33 1
     4    1   34 1
     5    2   31 1
     6    2    3 am
     7    3    4 2
     8    3    5 am
     9    5    6 1
    10    5    7 1
    11    6   35 1
    12    6   36 1
    13    6   37 1
    14    7   31 ar
    15    7    8 ar
    16    8    9 ar
    17    8   38 1
    18    9   10 1
    19    9   29 ar
    20   10   11 1
    21   10   39 1
    22   10   40 1
    23   11   12 1
    24   11   13 1
    25   11   14 1
    26   14   15 1
    27   14   41 1
    28   14   42 1
    29   15   16 1
    30   15   43 1
    31   15   44 1
    32   16   17 1
    33   16   45 1
    34   17   28 ar
    35   17   18 ar
    36   18   24 ar
    37   18   19 ar
    38   19   20 ar
    39   19   46 1
    40   20   21 ar
    41   20   47 1
    42   21   22 1
    43   21   23 ar
    44   23   24 ar
    45   23   48 1
    46   24   25 ar
    47   25   26 1
    48   25   27 ar
    49   27   28 ar
    50   27   49 1
    51   28   50 1
    52   29   30 ar
    53   29   51 1
    54   30   31 ar
    55   30   52 1
##########                 Name:              T532749
##########          Protonation:                   95
##########               SMILES:   cc(c(c1)C[NH2+]Cc2ccc3c(c2)OCO3)c4cccc(c4)C[NH+]5CCCN(CC5)c6ccc(cn6)C(F)(F)F
##########            Long Name:   hyl)-2-pyridyl]-1,4-diazepan-1-ium-1-yl]methyl]phenyl]phenyl]methyl]ammonium
##########          FlexRecCode: 1
##########               Number:                  342
##########   Ligand Source File: /raidb/db2/rgc/tcams/tcams-0000998.db2.gz
##########           GlobalRank: 282
##########                 Rank:                    1
##########               Setnum:                  192
##########             Matchnum:                 3162
##########                Cloud:                    1
##########        Electrostatic:           -42.005981
##########        Van der Waals:           -28.375366
##########  Ligand Polar Desolv:             9.645829
########## Ligand Apolar Desolv:            -4.545945
##########      Internal Energy:             0.000000
##########      Receptor Energy: 0.0
########## Receptor Desolvation:             0.000000
########## Receptor Hydrophobic:             0.000000
##########         Total Energy: -65.28
##########        Ligand Charge:             2.000000
##########            Arbitrary:    +999.9990
##########     heavy atom count:   42
##########           pose count:    1
##########        Ligand Energy:             0.000000
# num electro vdwattr vdwrepu polsolv apolsol rdesolv rhydroe totalscore fullpol fullapo
#   1    1.49   -0.60    0.05   -0.70   -0.16    0.00    0.00       0.09   -1.97   -0.44
#   2   -5.90   -0.93    0.12    2.26   -0.03    0.00    0.00      -4.48    5.72   -0.07
#   3    1.91   -1.30    0.69   -0.98   -0.23    0.00    0.00       0.09   -2.08   -0.48
#   4    2.64   -2.27    2.47   -0.98   -0.22    0.00    0.00       1.64   -2.18   -0.48
#   5    3.07   -1.20    0.10   -1.87   -0.14    0.00    0.00      -0.04   -5.10   -0.37
#   6   -0.32   -1.42    0.18   -0.11   -0.20    0.00    0.00      -1.88   -0.26   -0.45
#   7    4.19   -1.40    0.22   -2.04   -0.17    0.00    0.00       0.79   -5.06   -0.42
#   8   -5.91   -0.93    0.08    3.12   -0.62    0.00    0.00      -4.25   10.04   -1.99
#   9    3.62   -1.31    0.51   -2.88    0.47    0.00    0.00       0.42  -10.64    1.75
#  10   -1.42   -1.27    0.28    0.79   -0.29    0.00    0.00      -1.91    2.54   -0.93
#  11   11.35   -0.75    0.03   -5.13    0.35    0.00    0.00       5.85  -17.76    1.21
#  12   -3.23   -0.72    0.04    1.06   -0.17    0.00    0.00      -3.02    2.84   -0.46
#  13    5.90   -1.19    0.46   -1.73   -0.08    0.00    0.00       3.36   -5.12   -0.24
#  14    0.15   -0.72    0.11    0.16   -0.10    0.00    0.00      -0.41    0.59   -0.38
#  15    4.87   -0.38    0.01   -2.85    0.03    0.00    0.00       1.68  -15.87    0.19
#  16   -4.97   -0.01    0.00    1.61    0.03    0.00    0.00      -3.33   21.70    0.46
#  17   -0.20   -0.23    0.01    0.22   -0.04    0.00    0.00      -0.25    1.63   -0.34
#  18    0.88   -0.25    0.00   -0.49   -0.03    0.00    0.00       0.11   -4.95   -0.31
#  19    0.63   -0.39    0.02   -0.45   -0.07    0.00    0.00      -0.27   -2.66   -0.43
#  20    0.39   -0.29    0.01   -0.39   -0.03    0.00    0.00      -0.32   -3.18   -0.26
#  21    0.41   -0.13    0.00   -0.21   -0.02    0.00    0.00       0.06   -3.76   -0.37
#  22    0.15   -0.15    0.00   -0.36   -0.03    0.00    0.00      -0.39   -5.22   -0.47
#  23    0.20   -0.25    0.01   -0.32   -0.04    0.00    0.00      -0.40   -3.34   -0.36
#  24    0.15   -0.59    0.05   -0.03   -0.07    0.00    0.00      -0.49   -0.17   -0.37
#  25    0.27   -0.75    0.09   -0.81   -0.10    0.00    0.00      -1.29   -3.80   -0.46
#  26    0.27   -1.36    0.29   -1.35   -0.16    0.00    0.00      -2.32   -4.00   -0.47
#  27    0.46   -1.86    0.50   -1.82   -0.18    0.00    0.00      -2.89   -4.79   -0.47
#  28    0.95   -1.96    1.10   -1.11   -0.16    0.00    0.00      -1.18   -3.15   -0.44
#  29    1.94   -1.12    0.25   -1.02   -0.10    0.00    0.00      -0.05   -3.93   -0.37
#  30   -0.95   -0.92    0.23    0.60   -0.10    0.00    0.00      -1.13    2.21   -0.37
#  31    9.73   -0.45    0.03   -4.26    0.14    0.00    0.00       5.19  -22.54    0.74
#  32   -5.39    0.00    0.00    0.95    0.02    0.00    0.00      -4.42   21.53    0.48
#  33   -7.64   -0.01    0.00    1.69    0.05    0.00    0.00      -5.91   20.66    0.56
#  34   -1.06   -0.66    0.11    0.77   -0.11    0.00    0.00      -0.96    3.04   -0.42
#  35    1.94   -0.80    0.18   -0.65   -0.07    0.00    0.00       0.61   -3.37   -0.37
#  36    0.64   -0.57    0.13   -0.18   -0.06    0.00    0.00      -0.04   -1.28   -0.45
#  37    0.43   -0.46    0.08   -0.45   -0.06    0.00    0.00      -0.46   -3.52   -0.47
#  38   -0.15   -0.42    0.05   -0.13   -0.04    0.00    0.00      -0.69   -0.96   -0.33
#  39   -0.10   -0.31    0.02   -0.78    0.07    0.00    0.00      -1.10   -5.79    0.52
#  40    0.01   -0.16    0.00    0.32    0.00    0.00    0.00       0.19    3.22    0.02
#  41    0.10   -0.32    0.01   -0.94    0.08    0.00    0.00      -1.05   -5.92    0.52
#  42   -0.13   -0.47    0.05   -0.23   -0.05    0.00    0.00      -0.84   -1.43   -0.33
#  43    0.66   -0.72    0.11   -0.49   -0.09    0.00    0.00      -0.52   -2.37   -0.45
#  44    0.89   -0.38    0.01   -0.36   -0.07    0.00    0.00       0.10   -1.60   -0.32
#  45   -1.41   -0.62    0.07    0.81   -0.12    0.00    0.00      -1.27    2.66   -0.38
#  46   -2.37   -0.39    0.11    1.38   -0.11    0.00    0.00      -1.38    3.58   -0.28
#  47   -2.96   -0.57    0.33    2.85   -0.08    0.00    0.00      -0.44    7.92   -0.21
#  48   -0.75   -0.24    0.04    0.33   -0.05    0.00    0.00      -0.66    1.75   -0.25
#  49   -3.12   -0.25    0.02    0.19   -0.06    0.00    0.00      -3.22    0.76   -0.24
#  50   -2.75   -0.30    0.03    0.21   -0.09    0.00    0.00      -2.90    0.68   -0.28
#  51   -6.85   -1.07    1.41    1.43   -0.11    0.00    0.00      -5.18    3.69   -0.28
#  52   -3.32   -0.34    0.20    1.09   -0.05    0.00    0.00      -2.42    5.75   -0.25
#  53   -2.74   -0.32    0.10    0.87   -0.06    0.00    0.00      -2.14    3.69   -0.24
#  54   -3.24   -0.26    0.04    2.02   -0.06    0.00    0.00      -1.49    8.81   -0.26
#  55   -0.28   -0.06    0.00    0.42   -0.01    0.00    0.00       0.06    7.87   -0.28
#  56   -0.76   -0.09    0.01    0.88   -0.02    0.00    0.00       0.01    9.79   -0.26
#  57   -0.77   -0.16    0.02    1.41   -0.05    0.00    0.00       0.44    7.87   -0.28
#  58   -0.57   -0.02    0.00    0.14   -0.01    0.00    0.00      -0.47    4.88   -0.24
#  59   -0.06   -0.03    0.00    0.17   -0.01    0.00    0.00       0.07    4.44   -0.28
#  60   -0.03   -0.11    0.02    0.63   -0.03    0.00    0.00       0.49    7.08   -0.28
#  61   -0.28   -0.09    0.00    0.43   -0.02    0.00    0.00       0.04    5.06   -0.28
#  62   -0.42   -0.26    0.03    0.52   -0.08    0.00    0.00      -0.21    1.84   -0.28
#  63   -0.98   -0.41    0.10    0.56   -0.10    0.00    0.00      -0.83    1.53   -0.28
#  64   -4.31   -0.41    0.12    1.61   -0.09    0.00    0.00      -3.07    5.06   -0.28
#  65   -6.08   -0.83    0.76    2.63   -0.09    0.00    0.00      -3.61    7.76   -0.27
#  66   -4.04   -0.24    0.05    1.48   -0.03    0.00    0.00      -2.78    7.95   -0.17
#  67   -4.04   -0.45    0.20    2.34   -0.09    0.00    0.00      -2.04    7.71   -0.28
#  68   -3.27   -0.18    0.02    1.88   -0.05    0.00    0.00      -1.60   10.06   -0.28
#  69   -1.18   -0.07    0.00    0.74   -0.02    0.00    0.00      -0.52   10.70   -0.28
#  70   -0.49   -0.07    0.00    0.23   -0.02    0.00    0.00      -0.35    3.91   -0.28
#  71    0.06   -0.05    0.00    0.09   -0.01    0.00    0.00       0.09    1.95   -0.28
#  72   -0.04   -0.02    0.00    0.06   -0.01    0.00    0.00      -0.01    2.23   -0.28
#  73   -1.63   -0.14    0.01    0.85   -0.04    0.00    0.00      -0.96    5.48   -0.28
#  74   -2.57   -0.12    0.00    0.66   -0.03    0.00    0.00      -2.06    6.14   -0.27
#  75   -1.35   -0.12    0.00    1.04   -0.02    0.00    0.00      -0.44    8.67   -0.18
#  76    0.06   -0.50    0.56    1.27   -0.06    0.00    0.00       1.33    5.66   -0.28
#  77   -2.41   -0.21    0.01    1.01   -0.05    0.00    0.00      -1.65    3.97   -0.21

@<TRIPOS>MOLECULE
          T532749        95
   77    82     0     0     0



@<TRIPOS>ATOM
      1 F1          8.2687   -10.4539    96.1654 F          1          -0.1715
      2 C1          8.0635    -9.3511    97.0016 C.3        1           0.5172
      3 F2          7.8175    -9.7941    98.3055 F          1          -0.1717
      4 F3          9.2034    -8.5401    96.9919 F          1          -0.1741
      5 C2          6.8798    -8.5599    96.5081 C.ar       1          -0.2759
      6 C3          6.4787    -7.4088    97.1738 C.ar       1           0.0215
      7 C4          5.3873    -6.7119    96.6882 C.ar       1          -0.2405
      8 C5          4.7318    -7.1848    95.5556 C.ar       1           0.4065
      9 N1          5.1449    -8.2867    94.9489 N.ar       1          -0.5251
     10 C6          6.1866    -8.9685    95.3866 C.ar       1           0.2096
     11 N2          3.6333    -6.4944    95.0569 N.pl3      1          -0.6152
     12 C7          3.8123    -5.1292    94.6336 C.3        1           0.1110
     13 C8          4.2061    -5.0664    93.1380 C.3        1          -0.1584
     14 C9          3.0450    -5.4070    92.2963 C.3        1          -0.0063
     15 N3          2.5258    -6.7558    92.5643 N.4        1          -0.3618
     16 H1          3.3064    -7.3648    92.7584 H          1           0.4166
     17 C10         1.8507    -7.2419    91.3535 C.3        1           0.0307
     18 C11         2.8783    -7.7495    90.3750 C.ar       1          -0.1478
     19 C12         3.4318    -6.8888    89.4487 C.ar       1          -0.0881
     20 C13         4.3819    -7.3592    88.5449 C.ar       1          -0.0636
     21 C14         4.7682    -8.6977    88.5817 C.ar       1          -0.0887
     22 C15         4.2083    -9.5495    89.5119 C.ar       1          -0.1018
     23 C16         3.2692    -9.0757    90.4103 C.ar       1          -0.0869
     24 C17         4.9800    -6.4387    87.5465 C.ar       1          -0.0415
     25 C18         4.3811    -6.2755    86.2989 C.ar       1          -0.0985
     26 C19         4.9416    -5.4182    85.3741 C.ar       1          -0.0796
     27 C20         6.0955    -4.7209    85.6838 C.ar       1          -0.1007
     28 C21         6.6946    -4.8796    86.9204 C.ar       1          -0.0794
     29 C22         6.1390    -5.7300    87.8552 C.ar       1          -0.1482
     30 C23         6.7886    -5.8960    89.2048 C.3        1           0.0337
     31 N4          7.7678    -6.9895    89.1458 N.4        1          -0.5083
     32 H2          7.3002    -7.8462    88.8899 H          1           0.4186
     33 H3          8.4730    -6.7727    88.4575 H          1           0.4299
     34 C24         8.4009    -7.1514    90.4614 C.3        1           0.0497
     35 C25         9.4055    -8.2732    90.4008 C.ar       1          -0.1633
     36 C26         9.0112    -9.5681    90.6818 C.ar       1          -0.0798
     37 C27         9.9290   -10.6005    90.6276 C.ar       1          -0.1045
     38 C28        11.2472   -10.3392    90.2908 C.ar       1           0.0772
     39 O1         12.3300   -11.1613    90.1681 O.3        1          -0.2963
     40 C29        13.2982   -10.4113    89.4109 C.3        1           0.2107
     41 O2         12.9759    -9.0395    89.7069 O.3        1          -0.2974
     42 C30        11.6443    -9.0348    90.0072 C.ar       1           0.0435
     43 C31        10.7180    -8.0059    90.0588 C.ar       1          -0.0782
     44 C32         1.5991    -6.8380    93.6668 C.3        1          -0.0634
     45 C33         2.3278    -7.1990    94.9783 C.3        1           0.1109
     46 H4          7.0070    -7.0659    98.0512 H          1           0.1517
     47 H5          5.0482    -5.8130    97.1816 H          1           0.1409
     48 H6          6.4981    -9.8603    94.8632 H          1           0.1795
     49 H7          2.8811    -4.5826    94.7826 H          1           0.1128
     50 H8          4.5990    -4.6688    95.2313 H          1           0.0843
     51 H9          4.5457    -4.0595    92.8953 H          1           0.1285
     52 H10         5.0122    -5.7745    92.9460 H          1           0.0874
     53 H11         2.2522    -4.6818    92.4803 H          1           0.1339
     54 H12         3.3394    -5.3450    91.2487 H          1           0.1373
     55 H13         1.1696    -8.0509    91.6174 H          1           0.1410
     56 H14         1.2879    -6.4266    90.8992 H          1           0.1412
     57 H15         3.1285    -5.8525    89.4243 H          1           0.1397
     58 H16         5.5041    -9.0678    87.8831 H          1           0.1427
     59 H17         4.5071   -10.5870    89.5412 H          1           0.1472
     60 H18         2.8366    -9.7448    91.1395 H          1           0.1408
     61 H19         3.4803    -6.8194    86.0559 H          1           0.1331
     62 H20         4.4783    -5.2909    84.4068 H          1           0.1415
     63 H21         6.5318    -4.0521    84.9568 H          1           0.1429
     64 H22         7.5958    -4.3335    87.1568 H          1           0.1410
     65 H23         7.2936    -4.9706    89.4814 H          1           0.1468
     66 H24         6.0267    -6.1304    89.9483 H          1           0.1389
     67 H25         8.9060    -6.2259    90.7379 H          1           0.1460
     68 H26         7.6391    -7.3857    91.2050 H          1           0.1421
     69 H27         7.9840    -9.7736    90.9446 H          1           0.1424
     70 H28         9.6184   -11.6110    90.8483 H          1           0.1482
     71 H29        14.3095   -10.6472    89.7421 H          1           0.1476
     72 H30        13.1873   -10.6094    88.3447 H          1           0.0982
     73 H31        11.0221    -6.9939    89.8353 H          1           0.1466
     74 H32         1.0991    -5.8767    93.7855 H          1           0.1336
     75 H33         0.8536    -7.6033    93.4505 H          1           0.1438
     76 H34         2.4960    -8.2753    95.0132 H          1           0.1035
     77 H35         1.7073    -6.9045    95.8246 H          1           0.1240
@<TRIPOS>BOND
     1    1    2 1
     2    2    3 1
     3    2    4 1
     4    2    5 1
     5    5   10 ar
     6    5    6 ar
     7    6    7 ar
     8    6   46 1
     9    7    8 ar
    10    7   47 1
    11    8    9 ar
    12    8   11 1
    13    9   10 ar
    14   10   48 1
    15   11   45 1
    16   11   12 1
    17   12   13 1
    18   12   49 1
    19   12   50 1
    20   13   14 1
    21   13   51 1
    22   13   52 1
    23   14   15 1
    24   14   53 1
    25   14   54 1
    26   15   16 1
    27   15   17 1
    28   15   44 1
    29   17   18 1
    30   17   55 1
    31   17   56 1
    32   18   23 ar
    33   18   19 ar
    34   19   20 ar
    35   19   57 1
    36   20   21 ar
    37   20   24 1
    38   21   22 ar
    39   21   58 1
    40   22   23 ar
    41   22   59 1
    42   23   60 1
    43   24   29 ar
    44   24   25 ar
    45   25   26 ar
    46   25   61 1
    47   26   27 ar
    48   26   62 1
    49   27   28 ar
    50   27   63 1
    51   28   29 ar
    52   28   64 1
    53   29   30 1
    54   30   31 1
    55   30   65 1
    56   30   66 1
    57   31   32 1
    58   31   33 1
    59   31   34 1
    60   34   35 1
    61   34   67 1
    62   34   68 1
    63   35   43 ar
    64   35   36 ar
    65   36   37 ar
    66   36   69 1
    67   37   38 ar
    68   37   70 1
    69   38   42 ar
    70   38   39 1
    71   39   40 1
    72   40   41 1
    73   40   71 1
    74   40   72 1
    75   41   42 1
    76   42   43 ar
    77   43   73 1
    78   44   45 1
    79   44   74 1
    80   44   75 1
    81   45   76 1
    82   45   77 1
##########                 Name:              T537164
##########          Protonation:                   21
##########               SMILES:   [H]/N=C/1\NC(=[NH+]C2(N1OCCCOc3cccc4c3cccc4)CCCCC2)N
##########            Long Name:   1-[3-(1-naphthyloxy)propoxy]-9,11-diaza-7-azoniaspiro[5.5]undec-7-en-8-amine
##########          FlexRecCode: 1
##########               Number:                   63
##########   Ligand Source File: /raidb/db2/rgc/tcams/tcams-0001600.db2.gz
##########           GlobalRank: 282
##########                 Rank:                    1
##########               Setnum:                   27
##########             Matchnum:                  811
##########                Cloud:                    1
##########        Electrostatic:           -43.803524
##########        Van der Waals:           -23.827827
##########  Ligand Polar Desolv:             5.903501
########## Ligand Apolar Desolv:            -3.553574
##########      Internal Energy:             0.000000
##########      Receptor Energy: 0.0
########## Receptor Desolvation:             0.000000
########## Receptor Hydrophobic:             0.000000
##########         Total Energy: -65.28
##########        Ligand Charge:             1.000000
##########            Arbitrary:    +999.9990
##########     heavy atom count:   28
##########           pose count:    1
##########        Ligand Energy:             0.000000
# num electro vdwattr vdwrepu polsolv apolsol rdesolv rhydroe totalscore fullpol fullapo
#   1   34.52   -2.73    3.06   -8.43    0.33    0.00    0.00      26.74  -24.05    0.94
#   2  -23.43   -1.26    0.55    5.13   -1.17    0.00    0.00     -20.17   21.49   -4.91
#   3   23.42   -2.13    2.04   -4.67    0.34    0.00    0.00      18.99  -17.65    1.30
#   4  -24.30   -0.17    0.08    4.79    0.18    0.00    0.00     -19.41   15.26    0.57
#   5   -8.16   -0.34    0.03    1.71   -0.05    0.00    0.00      -6.82    9.54   -0.30
#   6    2.10   -0.27    0.01   -0.38   -0.03    0.00    0.00       1.42   -2.49   -0.22
#   7    2.80   -0.70    0.11   -0.40   -0.06    0.00    0.00       1.75   -1.59   -0.24
#   8    2.74   -0.51    0.05   -0.39   -0.06    0.00    0.00       1.83   -1.69   -0.25
#   9    3.43   -0.84    0.19   -0.67   -0.06    0.00    0.00       2.05   -2.44   -0.22
#  10    2.35   -0.43    0.05   -0.56   -0.04    0.00    0.00       1.37   -2.74   -0.19
#  11    5.02   -0.33    0.01   -1.22    0.08    0.00    0.00       3.57   -9.47    0.63
#  12    0.32   -0.31    0.03   -0.23    0.04    0.00    0.00      -0.16   -1.81    0.31
#  13   -0.06   -0.47    0.08    0.11   -0.02    0.00    0.00      -0.36    0.58   -0.10
#  14    0.37   -0.79    0.32   -0.32   -0.06    0.00    0.00      -0.47   -1.38   -0.25
#  15   -0.45   -0.96    0.18    0.21   -0.03    0.00    0.00      -1.05    0.64   -0.09
#  16    0.09   -2.47    1.27   -0.86    0.31    0.00    0.00      -1.65   -2.30    0.82
#  17   -0.59   -1.65    0.27    0.25   -0.13    0.00    0.00      -1.85    0.62   -0.31
#  18    1.66   -1.74    0.25   -0.90   -0.22    0.00    0.00      -0.95   -1.73   -0.42
#  19    0.59   -1.90    0.26   -0.34   -0.27    0.00    0.00      -1.66   -0.59   -0.47
#  20    1.30   -2.01    0.71   -0.47   -0.24    0.00    0.00      -0.72   -0.89   -0.46
#  21    0.20   -1.71    0.46   -0.09   -0.17    0.00    0.00      -1.31   -0.21   -0.40
#  22    1.76   -1.83    0.29   -0.26   -0.25    0.00    0.00      -0.28   -0.49   -0.46
#  23    1.55   -1.62    0.19   -0.23   -0.23    0.00    0.00      -0.34   -0.47   -0.47
#  24    1.65   -1.15    0.08   -0.19   -0.18    0.00    0.00       0.21   -0.51   -0.47
#  25    0.63   -1.27    0.17   -0.10   -0.15    0.00    0.00      -0.73   -0.31   -0.45
#  26    0.43   -1.41    0.18   -0.14   -0.15    0.00    0.00      -1.09   -0.37   -0.40
#  27   -4.69   -0.42    0.03    1.68   -0.65    0.00    0.00      -4.05   11.81   -4.56
#  28    0.85   -0.45    0.05   -1.47    0.20    0.00    0.00      -0.82  -10.90    1.45
#  29   10.34   -0.49    0.02   -3.10    0.20    0.00    0.00       6.98  -16.95    1.12
#  30  -14.67   -0.02    0.00    3.03    0.12    0.00    0.00     -11.54   14.81    0.60
#  31  -28.92   -0.23    0.16    5.64    0.21    0.00    0.00     -23.14   15.46    0.58
#  32   -0.74   -0.03    0.00    0.05   -0.01    0.00    0.00      -0.73    1.27   -0.28
#  33   -1.24   -0.08    0.00    0.25   -0.02    0.00    0.00      -1.09    3.09   -0.28
#  34   -1.32   -0.17    0.02    0.04   -0.04    0.00    0.00      -1.48    0.22   -0.24
#  35   -3.24   -0.68    0.47    0.14   -0.09    0.00    0.00      -3.39    0.45   -0.28
#  36   -1.10   -0.06    0.00    0.00   -0.02    0.00    0.00      -1.17    0.04   -0.28
#  37   -1.75   -0.21    0.03    0.24   -0.05    0.00    0.00      -1.75    1.24   -0.28
#  38   -1.89   -0.22    0.04    0.24   -0.01    0.00    0.00      -1.84    1.16   -0.03
#  39   -2.81   -0.71    0.54    0.31   -0.10    0.00    0.00      -2.77    0.90   -0.28
#  40   -1.74   -0.25    0.08    0.67   -0.05    0.00    0.00      -1.30    3.56   -0.28
#  41   -0.94   -0.05    0.00    0.14   -0.01    0.00    0.00      -0.87    2.57   -0.22
#  42   -0.59   -0.12    0.02    0.25   -0.02    0.00    0.00      -0.47    2.30   -0.20
#  43   -0.18   -0.23    0.06    0.22   -0.04    0.00    0.00      -0.18    1.39   -0.28
#  44    0.13   -0.87    2.60    0.11   -0.07    0.00    0.00       1.91    0.47   -0.28
#  45   -0.48   -0.09    0.00    0.08   -0.02    0.00    0.00      -0.51    0.91   -0.27
#  46   -0.89   -0.51    0.20    0.52   -0.09    0.00    0.00      -0.77    1.56   -0.26
#  47   -0.57   -0.17    0.01    0.21   -0.05    0.00    0.00      -0.57    1.21   -0.27
#  48   -1.48   -0.51    0.19    1.07   -0.10    0.00    0.00      -0.83    2.27   -0.22
#  49   -0.56   -0.62    0.21    1.02   -0.16    0.00    0.00      -0.11    1.78   -0.28
#  50   -1.50   -0.50    0.21    0.48   -0.13    0.00    0.00      -1.43    1.00   -0.28
#  51   -2.72   -0.45    0.07    0.45   -0.14    0.00    0.00      -2.79    0.88   -0.28
#  52   -2.12   -0.51    0.30    0.39   -0.12    0.00    0.00      -2.06    0.92   -0.28
#  53   -2.20   -0.17    0.01    0.13   -0.04    0.00    0.00      -2.27    0.83   -0.28
#  54   -0.47   -0.29    0.08    0.10   -0.05    0.00    0.00      -0.63    0.49   -0.27
#  55   -0.72   -0.01    0.00    0.52    0.05    0.00    0.00      -0.15    6.27    0.60
#  56   -5.54   -0.01    0.00    1.16    0.05    0.00    0.00      -4.33   13.21    0.59

@<TRIPOS>MOLECULE
          T537164        21
   56    59     0     0     0



@<TRIPOS>ATOM
      1 N1          4.8192    -5.1476    93.2612 N.pl3      1          -0.8057
      2 C1          4.9744    -6.2866    92.5073 C.cat      1           0.7465
      3 N2          5.9864    -6.3739    91.7056 N.pl3      1          -0.6491
      4 H1          6.6222    -5.6419    91.6834 H          1           0.4469
      5 C2          6.2173    -7.5224    90.8316 C.3        1           0.4093
      6 C3          5.8385    -7.1745    89.3910 C.3        1          -0.1316
      7 C4          6.7164    -6.0224    88.8979 C.3        1          -0.1155
      8 C5          8.1868    -6.4420    88.9522 C.3        1          -0.1233
      9 C6          8.5648    -6.7900    90.3933 C.3        1          -0.1462
     10 C7          7.6873    -7.9420    90.8868 C.3        1          -0.1336
     11 N3          5.3903    -8.6577    91.2706 N.pl3      1          -0.4975
     12 O1          5.8717    -9.9890    91.2445 O.3        1          -0.0654
     13 C8          6.5225   -10.3955    92.4500 C.3        1           0.0123
     14 C9          6.5531   -11.9234    92.5229 C.3        1          -0.1163
     15 C10         7.2498   -12.3586    93.8136 C.3        1           0.0668
     16 O2          6.5351   -11.8424    94.9382 O.3        1          -0.3059
     17 C11         7.2574   -11.5689    96.0552 C.ar       1           0.1443
     18 C12         7.9556   -12.5618    96.6833 C.ar       1          -0.2216
     19 C13         8.7003   -12.2978    97.8292 C.ar       1          -0.0809
     20 C14         8.7552   -11.0441    98.3581 C.ar       1          -0.1372
     21 C15         8.0517    -9.9954    97.7417 C.ar       1          -0.0197
     22 C16         8.0868    -8.6895    98.2602 C.ar       1          -0.1149
     23 C17         7.3930    -7.6985    97.6364 C.ar       1          -0.1001
     24 C18         6.6461    -7.9585    96.4890 C.ar       1          -0.1232
     25 C19         6.5889    -9.2112    95.9591 C.ar       1          -0.0885
     26 C20         7.2967   -10.2578    96.5716 C.ar       1          -0.0693
     27 C21         4.1084    -8.3473    91.7130 C.2        1           0.5916
     28 N4          3.0499    -8.9853    91.3018 N.2        1          -0.6068
     29 N5          4.0482    -7.3036    92.6338 N.pl3      1          -0.6768
     30 H2          4.0693    -5.0685    93.8715 H          1           0.4409
     31 H3          5.4617    -4.4248    93.1861 H          1           0.4402
     32 H4          5.9911    -8.0460    88.7544 H          1           0.0770
     33 H5          4.7911    -6.8754    89.3526 H          1           0.0965
     34 H6          6.4471    -5.7742    87.8712 H          1           0.0835
     35 H7          6.5636    -5.1510    89.5345 H          1           0.0805
     36 H8          8.3396    -7.3137    88.3158 H          1           0.0781
     37 H9          8.8120    -5.6212    88.6006 H          1           0.0662
     38 H10         9.6123    -7.0889    90.4321 H          1           0.1085
     39 H11         8.4118    -5.9184    91.0297 H          1           0.0797
     40 H12         7.9563    -8.1896    91.9138 H          1           0.1017
     41 H13         7.8405    -8.8139    90.2508 H          1           0.0831
     42 H14         7.5423   -10.0109    92.4598 H          1           0.0716
     43 H15         5.9774   -10.0017    93.3078 H          1           0.0661
     44 H16         5.5332   -12.3082    92.5130 H          1           0.0941
     45 H17         7.0982   -12.3173    91.6651 H          1           0.0943
     46 H18         7.2716   -13.4472    93.8655 H          1           0.0669
     47 H19         8.2696   -11.9738    93.8235 H          1           0.0660
     48 H20         7.9290   -13.5653    96.2851 H          1           0.1232
     49 H21         9.2429   -13.1002    98.3068 H          1           0.1257
     50 H22         9.3372   -10.8565    99.2483 H          1           0.1310
     51 H23         8.6608    -8.4737    99.1491 H          1           0.1325
     52 H24         7.4215    -6.6958    98.0368 H          1           0.1278
     53 H25         6.1043    -7.1544    96.0132 H          1           0.1269
     54 H26         6.0057    -9.3982    95.0695 H          1           0.1310
     55 H27         2.1736    -8.7371    91.6357 H          1           0.3711
     56 H28         3.3789    -7.2894    93.3356 H          1           0.4475
@<TRIPOS>BOND
     1    1    2 1
     2    1   30 1
     3    1   31 1
     4    2   29 1
     5    2    3 2
     6    3    4 1
     7    3    5 1
     8    5   10 1
     9    5    6 1
    10    5   11 1
    11    6    7 1
    12    6   32 1
    13    6   33 1
    14    7    8 1
    15    7   34 1
    16    7   35 1
    17    8    9 1
    18    8   36 1
    19    8   37 1
    20    9   10 1
    21    9   38 1
    22    9   39 1
    23   10   40 1
    24   10   41 1
    25   11   12 1
    26   11   27 1
    27   12   13 1
    28   13   14 1
    29   13   42 1
    30   13   43 1
    31   14   15 1
    32   14   44 1
    33   14   45 1
    34   15   16 1
    35   15   46 1
    36   15   47 1
    37   16   17 1
    38   17   26 ar
    39   17   18 ar
    40   18   19 ar
    41   18   48 1
    42   19   20 ar
    43   19   49 1
    44   20   21 ar
    45   20   50 1
    46   21   26 ar
    47   21   22 ar
    48   22   23 ar
    49   22   51 1
    50   23   24 ar
    51   23   52 1
    52   24   25 ar
    53   24   53 1
    54   25   26 ar
    55   25   54 1
    56   27   28 2
    57   27   29 1
    58   28   55 1
    59   29   56 1
##########                 Name:              T529520
##########          Protonation:                   68
##########               SMILES:   Cc1nc(cs1)c2cccc(c2)/N=c/3\[nH]c(cc[nH+]3)NC[C@H](c4ccc(cc4)C(F)(F)F)O
##########            Long Name:   yl]imino-1H-pyrimidin-3-ium-6-yl]amino]-1-[4-(trifluoromethyl)phenyl]ethanol
##########          FlexRecCode: 1
##########               Number:                   45
##########   Ligand Source File: /raidb/db2/rgc/tcams/tcams-0000616.db2.gz
##########           GlobalRank: 285
##########                 Rank:                    1
##########               Setnum:                  235
##########             Matchnum:                 4195
##########                Cloud:                    1
##########        Electrostatic:           -37.685368
##########        Van der Waals:           -32.481060
##########  Ligand Polar Desolv:             7.764233
########## Ligand Apolar Desolv:            -2.864326
##########      Internal Energy:             0.000000
##########      Receptor Energy: 0.0
########## Receptor Desolvation:             0.000000
########## Receptor Hydrophobic:             0.000000
##########         Total Energy: -65.27
##########        Ligand Charge:             1.000000
##########            Arbitrary:    +999.9990
##########     heavy atom count:   33
##########           pose count:    1
##########        Ligand Energy:             0.000000
# num electro vdwattr vdwrepu polsolv apolsol rdesolv rhydroe totalscore fullpol fullapo
#   1    0.47   -0.98    0.10   -0.26   -0.10    0.00    0.00      -0.76   -0.53   -0.21
#   2   -0.49   -1.26    0.12    0.05   -0.26    0.00    0.00      -1.85    0.12   -0.67
#   3    3.64   -1.31    0.13   -0.60    0.64    0.00    0.00       2.49   -1.69    1.80
#   4   -1.14   -1.31    0.13    0.08   -0.28    0.00    0.00      -2.52    0.20   -0.74
#   5    3.54   -2.20    0.80   -0.69   -0.12    0.00    0.00       1.32   -1.43   -0.24
#   6   -1.73   -2.60    0.51    0.22   -0.37    0.00    0.00      -3.97    0.49   -0.81
#   7   -0.20   -1.14    0.09   -0.12   -0.16    0.00    0.00      -1.54   -0.32   -0.41
#   8    2.34   -1.90    0.69   -0.68   -0.20    0.00    0.00       0.27   -1.51   -0.44
#   9    2.72   -2.60    1.55   -0.55   -0.23    0.00    0.00       0.89   -1.12   -0.47
#  10    4.47   -1.64    0.31   -1.00   -0.15    0.00    0.00       1.99   -2.44   -0.37
#  11   -1.31   -1.08    0.07    0.56   -0.21    0.00    0.00      -1.97    1.55   -0.58
#  12    0.75   -1.33    0.19   -0.41   -0.16    0.00    0.00      -0.96   -1.13   -0.45
#  13    7.68   -1.15    0.09   -3.79    0.83    0.00    0.00       3.66   -9.38    2.05
#  14   -9.57   -0.78    0.04    3.77   -1.35    0.00    0.00      -7.89   12.95   -4.62
#  15   11.66   -0.57    0.01   -3.33    0.21    0.00    0.00       7.99  -15.14    0.96
#  16   -8.62   -0.59    0.03    3.01   -0.42    0.00    0.00      -6.59   14.48   -2.04
#  17   11.30   -0.98    0.16   -4.43    0.42    0.00    0.00       6.48  -17.39    1.66
#  18   -1.20   -0.76    0.16    0.32   -0.09    0.00    0.00      -1.57    1.22   -0.35
#  19   -2.88   -0.59    0.07    0.89   -0.03    0.00    0.00      -2.54    3.58   -0.14
#  20    9.68   -2.14    0.84   -4.22    0.60    0.00    0.00       4.76  -12.01    1.70
#  21    2.64   -0.99    0.19   -0.33   -0.08    0.00    0.00       1.43   -1.42   -0.35
#  22    2.14   -0.52    0.04   -0.30   -0.08    0.00    0.00       1.28   -1.64   -0.44
#  23    1.08   -0.59    0.05   -0.23   -0.09    0.00    0.00       0.23   -1.16   -0.44
#  24    3.24   -0.76    0.08   -0.43   -0.09    0.00    0.00       2.06   -1.91   -0.38
#  25    1.70   -1.32    0.35   -0.35   -0.13    0.00    0.00       0.25   -1.17   -0.44
#  26    3.07   -1.80    0.63   -0.49   -0.14    0.00    0.00       1.29   -1.62   -0.45
#  27   -6.53   -0.42    0.03    0.53   -0.02    0.00    0.00      -6.41    2.44   -0.07
#  28    1.37   -0.35    0.04   -0.16   -0.09    0.00    0.00       0.81   -0.82   -0.48
#  29    1.22   -0.19    0.00   -0.12   -0.07    0.00    0.00       0.83   -0.73   -0.45
#  30    2.62   -0.77    0.11   -0.32   -0.17    0.00    0.00       1.47   -0.84   -0.45
#  31    4.03   -0.57    0.02   -1.97   -0.10    0.00    0.00       1.42   -9.23   -0.46
#  32   -5.36   -0.93    0.10    2.73   -0.28    0.00    0.00      -3.74    9.41   -0.97
#  33   11.54   -1.07    0.12   -5.05    0.37    0.00    0.00       5.90  -13.86    1.01
#  34  -13.19   -0.03    0.00    4.39    0.21    0.00    0.00      -8.63   12.35    0.59
#  35   -0.28   -0.47    0.16    0.39   -0.10    0.00    0.00      -0.30    1.13   -0.28
#  36   -0.97   -0.24    0.02    0.21   -0.08    0.00    0.00      -1.05    0.76   -0.28
#  37   -0.64   -0.36    0.04    0.39   -0.12    0.00    0.00      -0.69    0.89   -0.28
#  38   -3.86   -0.66    0.37    1.11   -0.10    0.00    0.00      -3.15    2.56   -0.24
#  39   -3.34   -0.51    0.15    0.82   -0.11    0.00    0.00      -2.98    1.79   -0.23
#  40   -4.84   -0.76    0.46    1.73   -0.15    0.00    0.00      -3.55    3.32   -0.28
#  41   -3.62   -0.36    0.05    1.04   -0.09    0.00    0.00      -2.98    3.35   -0.28
#  42   -0.12   -0.58    0.40    0.04   -0.08    0.00    0.00      -0.34    0.12   -0.26
#  43  -10.07   -0.01    0.00    1.07    0.03    0.00    0.00      -8.98    9.94    0.32
#  44   -5.09   -0.03    0.00    2.83    0.12    0.00    0.00      -2.16   13.12    0.56
#  45   -4.64   -0.82    0.95    1.04   -0.08    0.00    0.00      -3.56    3.45   -0.28
#  46   -2.27   -0.10    0.01    0.27   -0.03    0.00    0.00      -2.12    2.65   -0.28
#  47   -1.28   -0.06    0.00    0.22   -0.02    0.00    0.00      -1.14    3.33   -0.28
#  48  -17.53   -0.11    0.01    4.28    0.45    0.00    0.00     -12.90    9.69    1.01
#  49   -1.99   -0.06    0.00    0.24   -0.01    0.00    0.00      -1.82    4.41   -0.24
#  50   -1.84   -0.12    0.01    0.18   -0.03    0.00    0.00      -1.79    1.66   -0.27
#  51   -4.27   -0.27    0.04    0.30   -0.07    0.00    0.00      -4.27    1.12   -0.27
#  52   -5.07   -0.71    0.66    1.02   -0.09    0.00    0.00      -4.18    3.22   -0.28
#  53   -1.57   -0.11    0.01    0.87   -0.03    0.00    0.00      -0.84    7.95   -0.28
#  54   -5.08   -0.43    0.29    2.96   -0.08    0.00    0.00      -2.33   10.62   -0.28

@<TRIPOS>MOLECULE
          T529520        68
   54    57     0     0     0



@<TRIPOS>ATOM
      1 C1          7.8575   -12.1418    96.4004 C.3        1          -0.0695
      2 C2          7.9437   -10.6733    96.7272 C.2        1           0.0641
      3 N1          7.0868    -9.7285    96.4403 N.2        1          -0.5172
      4 C3          7.3020    -8.4703    96.7974 C.2        1           0.0900
      5 C4          8.4630    -8.2187    97.4781 C.2        1          -0.2214
      6 S1          9.1620    -9.8597    97.5549 S.3        1           0.1411
      7 C5          6.3359    -7.3913    96.4758 C.ar       1           0.0131
      8 C6          6.7881    -6.0879    96.2677 C.ar       1          -0.1013
      9 C7          5.8916    -5.0805    95.9683 C.ar       1          -0.0929
     10 C8          4.5424    -5.3550    95.8726 C.ar       1          -0.1695
     11 C9          4.0756    -6.6567    96.0793 C.ar       1           0.0770
     12 C10         4.9792    -7.6786    96.3760 C.ar       1          -0.0709
     13 N2          2.7402    -6.9287    95.9852 N.2        1          -0.4985
     14 C11         2.0961    -6.7019    94.8493 C.2        1           0.5605
     15 N3          2.8012    -6.3181    93.7335 N.pl3      1          -0.6348
     16 C12         2.1359    -6.0841    92.5619 C.2        1           0.5534
     17 N4          2.8188    -5.7009    91.4363 N.pl3      1          -0.6513
     18 C13         4.2584    -5.9525    91.3319 C.3        1           0.0435
     19 C14         4.6354    -6.1552    89.8630 C.3        1           0.1456
     20 O1          4.3018    -4.9815    89.1192 O.3        1          -0.5400
     21 C15         6.1162    -6.4140    89.7555 C.ar       1          -0.1054
     22 C16         6.6758    -7.5030    90.3973 C.ar       1          -0.1094
     23 C17         8.0340    -7.7404    90.2987 C.ar       1          -0.0621
     24 C18         8.8326    -6.8893    89.5580 C.ar       1          -0.1655
     25 C19         8.2727    -5.8007    88.9156 C.ar       1          -0.0628
     26 C20         6.9139    -5.5657    89.0107 C.ar       1          -0.1018
     27 C21        10.3134    -7.1475    89.4513 C.3        1           0.5054
     28 F1         10.6403    -8.2958    90.1804 F          1          -0.1732
     29 F2         10.6588    -7.3336    88.1085 F          1          -0.1721
     30 F3         11.0159    -6.0526    89.9660 F          1          -0.1724
     31 C22         0.7600    -6.2414    92.5315 C.2        1          -0.3328
     32 C23         0.0959    -6.6312    93.6882 C.2        1           0.2992
     33 N5          0.7692    -6.8540    94.8006 N.pl3      1          -0.5455
     34 H1          0.2920    -7.1297    95.5987 H          1           0.4630
     35 H2          6.9354   -12.3388    95.8536 H          1           0.0897
     36 H3          8.7117   -12.4283    95.7869 H          1           0.0948
     37 H4          7.8630   -12.7207    97.3239 H          1           0.0935
     38 H5          8.8476    -7.2865    97.8647 H          1           0.1997
     39 H6          7.8425    -5.8658    96.3413 H          1           0.1362
     40 H7          6.2480    -4.0736    95.8086 H          1           0.1378
     41 H8          3.8462    -4.5632    95.6382 H          1           0.1229
     42 H9          4.6254    -8.6871    96.5320 H          1           0.1449
     43 H10         3.7646    -6.2135    93.7769 H          1           0.4452
     44 H11         2.3490    -5.2633    90.7093 H          1           0.4473
     45 H12         4.8063    -5.1001    91.7333 H          1           0.0987
     46 H13         4.5128    -6.8478    91.8992 H          1           0.1047
     47 H14         4.0875    -7.0077    89.4615 H          1           0.1315
     48 H15         4.7539    -4.1822    89.4222 H          1           0.3841
     49 H16         6.0519    -8.1681    90.9759 H          1           0.1347
     50 H17         8.4713    -8.5908    90.8007 H          1           0.1445
     51 H18         8.8966    -5.1354    88.3372 H          1           0.1449
     52 H19         6.4758    -4.7175    88.5055 H          1           0.1405
     53 H20         0.2098    -6.0629    91.6196 H          1           0.1969
     54 H21        -0.9766    -6.7567    93.6751 H          1           0.2217
@<TRIPOS>BOND
     1    1    2 1
     2    1   35 1
     3    1   36 1
     4    1   37 1
     5    2    6 1
     6    2    3 2
     7    3    4 1
     8    4    5 2
     9    4    7 1
    10    5    6 1
    11    5   38 1
    12    7   12 ar
    13    7    8 ar
    14    8    9 ar
    15    8   39 1
    16    9   10 ar
    17    9   40 1
    18   10   11 ar
    19   10   41 1
    20   11   12 ar
    21   11   13 1
    22   12   42 1
    23   13   14 2
    24   14   33 1
    25   14   15 1
    26   15   16 1
    27   15   43 1
    28   16   17 1
    29   16   31 2
    30   17   18 1
    31   17   44 1
    32   18   19 1
    33   18   45 1
    34   18   46 1
    35   19   20 1
    36   19   21 1
    37   19   47 1
    38   20   48 1
    39   21   26 ar
    40   21   22 ar
    41   22   23 ar
    42   22   49 1
    43   23   24 ar
    44   23   50 1
    45   24   25 ar
    46   24   27 1
    47   25   26 ar
    48   25   51 1
    49   26   52 1
    50   27   28 1
    51   27   29 1
    52   27   30 1
    53   31   32 1
    54   31   53 1
    55   32   33 2
    56   32   54 1
    57   33   34 1
##########                 Name:              T534552
##########          Protonation:                   35
##########               SMILES:   c1cc(c(cc1C[NH2+]CCC/[NH+]=c/2\[nH]c3ccncc3[nH]2)C(F)(F)F)Cl
##########            Long Name:   methyl-[3-(1,3-dihydroimidazo[4,5-c]pyridin-2-ylideneammonio)propyl]ammonium
##########          FlexRecCode: 1
##########               Number:                  208
##########   Ligand Source File: /raidb/db2/rgc/tcams/tcams-0001304.db2.gz
##########           GlobalRank: 285
##########                 Rank:                    1
##########               Setnum:                   95
##########             Matchnum:                 3963
##########                Cloud:                    1
##########        Electrostatic:           -51.802437
##########        Van der Waals:           -24.619104
##########  Ligand Polar Desolv:            13.806512
########## Ligand Apolar Desolv:            -2.652310
##########      Internal Energy:             0.000000
##########      Receptor Energy: 0.0
########## Receptor Desolvation:             0.000000
########## Receptor Hydrophobic:             0.000000
##########         Total Energy: -65.27
##########        Ligand Charge:             2.000000
##########            Arbitrary:    +999.9990
##########     heavy atom count:   26
##########           pose count:    1
##########        Ligand Energy:             0.000000
# num electro vdwattr vdwrepu polsolv apolsol rdesolv rhydroe totalscore fullpol fullapo
#   1    0.85   -0.20    0.01   -0.39   -0.05    0.00    0.00       0.22   -3.11   -0.44
#   2   -2.76   -0.26    0.01    1.11   -0.01    0.00    0.00      -1.91    7.56   -0.06
#   3    0.68   -0.42    0.03   -0.77   -0.13    0.00    0.00      -0.61   -2.68   -0.45
#   4    0.27   -0.11    0.00   -0.22   -0.04    0.00    0.00      -0.09   -2.77   -0.45
#   5    2.11   -0.50    0.02   -0.92   -0.07    0.00    0.00       0.64   -5.06   -0.37
#   6   -0.68   -0.89    0.08   -0.32   -0.09    0.00    0.00      -1.92   -1.07   -0.30
#   7    0.00   -2.71    1.09   -0.86   -0.32    0.00    0.00      -2.80   -2.44   -0.91
#   8    2.97   -1.53    0.32   -1.49   -0.17    0.00    0.00       0.10   -3.92   -0.46
#   9    1.33   -1.45    0.34   -0.11   -0.15    0.00    0.00      -0.04   -0.32   -0.45
#  10    3.83   -0.72    0.07   -0.71   -0.08    0.00    0.00       2.39   -3.19   -0.37
#  11   -0.96   -0.38    0.03    0.70   -0.08    0.00    0.00      -0.70    3.67   -0.42
#  12   15.92   -1.26    0.59   -6.71    0.19    0.00    0.00       8.72  -26.44    0.73
#  13  -12.80   -0.02    0.00    4.64    0.11    0.00    0.00      -8.08   25.07    0.57
#  14  -20.78   -0.09    0.01    7.38    0.17    0.00    0.00     -13.31   24.22    0.57
#  15    0.13   -0.47    0.05    0.06   -0.09    0.00    0.00      -0.32    0.27   -0.40
#  16    4.74   -0.66    0.13   -2.14   -0.06    0.00    0.00       2.00   -8.79   -0.24
#  17   -2.38   -0.51    0.07    0.64   -0.09    0.00    0.00      -2.27    2.81   -0.41
#  18   15.50   -0.77    0.04   -7.18    0.43    0.00    0.00       8.02  -27.16    1.64
#  19  -11.80   -0.01    0.00    2.80    0.07    0.00    0.00      -8.94   22.10    0.57
#  20  -12.50   -0.90    0.05    9.46   -1.64    0.00    0.00      -5.53   28.59   -4.95
#  21    8.26   -0.94    0.06   -7.06    0.38    0.00    0.00       0.68  -21.80    1.16
#  22   -1.57   -1.26    0.10    1.75   -0.32    0.00    0.00      -1.29    4.33   -0.78
#  23    1.66   -1.51    0.20   -1.56   -0.21    0.00    0.00      -1.42   -3.53   -0.48
#  24   -2.22   -3.00    2.27    0.55   -0.54    0.00    0.00      -2.94    0.99   -0.98
#  25    7.91   -4.39    2.56   -6.68    1.23    0.00    0.00       0.64  -11.09    2.04
#  26   -2.53   -3.70    1.54    1.35   -0.57    0.00    0.00      -3.92    2.31   -0.98
#  27   -0.26   -1.94    0.44    0.59   -0.37    0.00    0.00      -1.55    1.22   -0.78
#  28   10.18   -1.66    0.32   -8.79    0.50    0.00    0.00       0.55  -21.24    1.21
#  29    0.50   -0.45    0.02   -0.17   -0.07    0.00    0.00      -0.17   -0.98   -0.42
#  30   -5.78   -0.51    0.14    1.25   -0.11    0.00    0.00      -5.01    3.13   -0.28
#  31   -5.42   -0.47    0.16    3.29   -0.09    0.00    0.00      -2.53   10.23   -0.28
#  32   -2.09   -0.13    0.01    1.22   -0.04    0.00    0.00      -1.02    9.19   -0.28
#  33   -1.79   -0.04    0.00    0.45   -0.01    0.00    0.00      -1.40   10.59   -0.28
#  34   -2.50   -0.15    0.01    1.58   -0.05    0.00    0.00      -1.11    9.01   -0.28
#  35   -1.82   -0.05    0.00    0.51   -0.01    0.00    0.00      -1.38    9.71   -0.28
#  36   -4.74   -0.56    0.38    1.80   -0.08    0.00    0.00      -3.21    6.46   -0.28
#  37   -2.10   -0.10    0.00    0.65   -0.03    0.00    0.00      -1.58    6.01   -0.28
#  38   -1.40   -0.10    0.01    0.67   -0.03    0.00    0.00      -0.85    6.73   -0.28
#  39   -3.53   -0.26    0.10    1.33   -0.05    0.00    0.00      -2.42    7.02   -0.28
#  40   -6.26   -0.01    0.00    3.42    0.09    0.00    0.00      -2.76   20.93    0.57
#  41   -1.80   -0.23    0.02    1.35   -0.06    0.00    0.00      -0.72    6.16   -0.28
#  42   -3.23   -0.62    0.41    1.43   -0.12    0.00    0.00      -2.12    3.33   -0.28
#  43   -3.13   -1.24    1.01    2.83   -0.18    0.00    0.00      -0.70    4.50   -0.28
#  44   -9.98   -0.04    0.00    6.67    0.21    0.00    0.00      -3.12   18.45    0.59
#  45   -1.83   -0.06    0.00    0.41   -0.01    0.00    0.00      -1.49    7.41   -0.25

@<TRIPOS>MOLECULE
          T534552        35
   45    47     0     0     0



@<TRIPOS>ATOM
      1 F1         10.5336    -9.4015    89.9569 F          1          -0.1724
      2 C1         11.1802    -8.2857    89.4144 C.3        1           0.5064
      3 F2         12.0690    -7.7579    90.3570 F          1          -0.1591
      4 F3         11.8873    -8.6677    88.2694 F          1          -0.1620
      5 C2         10.1574    -7.2412    89.0482 C.ar       1          -0.1720
      6 C3         10.5623    -6.0439    88.4849 C.ar       1           0.0374
      7 Cl1        12.2484    -5.7446    88.1998 Cl         1           0.0000
      8 C4          9.6229    -5.0859    88.1487 C.ar       1          -0.1049
      9 C5          8.2804    -5.3250    88.3755 C.ar       1          -0.0459
     10 C6          7.8767    -6.5211    88.9383 C.ar       1          -0.1765
     11 C7          6.4130    -6.7811    89.1853 C.3        1           0.0499
     12 N1          6.0518    -6.3099    90.5290 N.4        1          -0.5110
     13 H1          6.6018    -6.8021    91.2171 H          1           0.4319
     14 H2          6.2341    -5.3199    90.5984 H          1           0.4321
     15 C8          4.6252    -6.5633    90.7698 C.3        1          -0.0061
     16 C9          4.2490    -6.0726    92.1693 C.3        1          -0.1692
     17 C10         5.0827    -6.8189    93.2128 C.3        1           0.0970
     18 N2          4.7225    -6.3490    94.5527 N.pl3      1          -0.6503
     19 H3          4.0448    -5.6635    94.6604 H          1           0.4466
     20 C11         5.3141    -6.8529    95.6024 C.cat      1           0.6717
     21 N3          6.2890    -7.8200    95.5836 N.pl3      1          -0.5773
     22 C12         6.6614    -8.0858    96.8930 C.ar       1           0.1245
     23 C13         7.5803    -8.9499    97.4773 C.ar       1          -0.1377
     24 C14         7.7019    -8.9624    98.8525 C.ar       1           0.1451
     25 N4          6.9631    -8.1714    99.6085 N.ar       1          -0.4397
     26 C15         6.0789    -7.3361    99.0959 C.ar       1           0.1679
     27 C16         5.8959    -7.2624    97.7253 C.ar       1           0.0184
     28 N5          5.0679    -6.4990    96.9055 N.pl3      1          -0.5662
     29 C17         8.8147    -7.4812    89.2697 C.ar       1          -0.0332
     30 H4          9.9383    -4.1510    87.7093 H          1           0.1631
     31 H5          7.5470    -4.5768    88.1134 H          1           0.1532
     32 H6          5.8190    -6.2495    88.4419 H          1           0.1473
     33 H7          6.2162    -7.8506    89.1103 H          1           0.1489
     34 H8          4.0311    -6.0316    90.0265 H          1           0.1434
     35 H9          4.4284    -7.6328    90.6947 H          1           0.1435
     36 H10         4.4458    -5.0031    92.2443 H          1           0.1097
     37 H11         3.1902    -6.2606    92.3479 H          1           0.1098
     38 H12         4.8859    -7.8883    93.1377 H          1           0.1083
     39 H13         6.1413    -6.6309    93.0341 H          1           0.1082
     40 H14         6.6544    -8.2438    94.7912 H          1           0.4576
     41 H15         8.1882    -9.6004    96.8662 H          1           0.1653
     42 H16         8.4124    -9.6300    99.3172 H          1           0.1920
     43 H17         5.4941    -6.7062    99.7497 H          1           0.1845
     44 H18         4.4271    -5.8347    97.2037 H          1           0.4628
     45 H19         8.4983    -8.4175    89.7054 H          1           0.1570
@<TRIPOS>BOND
     1    1    2 1
     2    2    3 1
     3    2    4 1
     4    2    5 1
     5    5   29 ar
     6    5    6 ar
     7    6    7 1
     8    6    8 ar
     9    8    9 ar
    10    8   30 1
    11    9   10 ar
    12    9   31 1
    13   10   11 1
    14   10   29 ar
    15   11   12 1
    16   11   32 1
    17   11   33 1
    18   12   13 1
    19   12   14 1
    20   12   15 1
    21   15   16 1
    22   15   34 1
    23   15   35 1
    24   16   17 1
    25   16   36 1
    26   16   37 1
    27   17   18 1
    28   17   38 1
    29   17   39 1
    30   18   19 1
    31   18   20 2
    32   20   28 1
    33   20   21 1
    34   21   22 1
    35   21   40 1
    36   22   27 ar
    37   22   23 ar
    38   23   24 ar
    39   23   41 1
    40   24   25 ar
    41   24   42 1
    42   25   26 ar
    43   26   27 ar
    44   26   43 1
    45   27   28 1
    46   28   44 1
    47   29   45 1
##########                 Name:              T539729
##########          Protonation:                   81
##########               SMILES:   COc1ccc2ccc(c(c2n1)CC(=O)N3CCO[C@H](C3)C[NH2+]Cc4cccc(n4)c5ccc(cc5)F)F
##########            Long Name:   )acetyl]morpholin-2-yl]methyl-[[6-(4-fluorophenyl)-2-pyridyl]methyl]ammonium
##########          FlexRecCode: 1
##########               Number:                  195
##########   Ligand Source File: /raidb/db2/rgc/tcams/tcams-0001954.db2.gz
##########           GlobalRank: 285
##########                 Rank:                    1
##########               Setnum:                  139
##########             Matchnum:                 3041
##########                Cloud:                    1
##########        Electrostatic:           -39.318752
##########        Van der Waals:           -30.588551
##########  Ligand Polar Desolv:             7.704111
########## Ligand Apolar Desolv:            -3.068376
##########      Internal Energy:             0.000000
##########      Receptor Energy: 0.0
########## Receptor Desolvation:             0.000000
########## Receptor Hydrophobic:             0.000000
##########         Total Energy: -65.27
##########        Ligand Charge:             1.000000
##########            Arbitrary:    +999.9990
##########     heavy atom count:   38
##########           pose count:    1
##########        Ligand Energy:             0.000000
# num electro vdwattr vdwrepu polsolv apolsol rdesolv rhydroe totalscore fullpol fullapo
#   1   -0.64   -1.45    0.48    0.14    0.02    0.00    0.00      -1.45    0.33    0.04
#   2    1.57   -1.13    0.25   -0.65    0.29    0.00    0.00       0.32   -2.01    0.90
#   3   -0.46   -0.62    0.04    0.36   -0.15    0.00    0.00      -0.83    1.61   -0.66
#   4    0.10   -0.33    0.01   -0.20   -0.07    0.00    0.00      -0.48   -1.38   -0.46
#   5    0.01   -0.24    0.01    0.00   -0.04    0.00    0.00      -0.27   -0.04   -0.46
#   6    0.20   -0.50    0.08   -0.15   -0.06    0.00    0.00      -0.43   -1.00   -0.40
#   7    0.05   -0.54    0.06   -0.04   -0.08    0.00    0.00      -0.55   -0.27   -0.46
#   8    0.30   -1.00    0.19   -0.28   -0.12    0.00    0.00      -0.91   -1.06   -0.47
#   9   -0.40   -1.93    1.29    0.10   -0.11    0.00    0.00      -1.05    0.32   -0.34
#  10    0.42   -2.19    2.15   -0.19   -0.17    0.00    0.00       0.01   -0.50   -0.45
#  11    0.31   -2.27    3.21   -0.16   -0.09    0.00    0.00       1.00   -0.54   -0.30
#  12    1.30   -1.74    0.87   -0.24   -0.06    0.00    0.00       0.13   -0.68   -0.16
#  13   -5.26   -1.24    0.51    1.02   -0.16    0.00    0.00      -5.13    4.11   -0.64
#  14    1.35   -0.44    0.05   -0.32    0.06    0.00    0.00       0.70   -1.97    0.37
#  15    9.68   -1.07    0.25   -2.20    0.52    0.00    0.00       7.18   -8.44    1.99
#  16   -1.66   -1.20    0.43    0.32   -0.19    0.00    0.00      -2.30    0.84   -0.48
#  17   -1.76   -1.42    0.42    0.57   -0.06    0.00    0.00      -2.26    1.32   -0.13
#  18   10.54   -1.83    0.85   -3.03    0.43    0.00    0.00       6.96   -8.88    1.26
#  19   -0.97   -0.47    0.04    0.35   -0.03    0.00    0.00      -1.09    1.54   -0.12
#  20   -0.07   -0.35    0.02    0.20   -0.07    0.00    0.00      -0.27    1.09   -0.38
#  21   15.77   -1.27    0.60   -4.19    0.19    0.00    0.00      11.10  -16.53    0.73
#  22  -13.84   -0.02    0.00    3.19    0.12    0.00    0.00     -10.55   15.01    0.57
#  23  -20.42   -0.08    0.01    4.66    0.15    0.00    0.00     -15.67   15.86    0.52
#  24   -1.31   -0.43    0.05    0.50   -0.08    0.00    0.00      -1.28    2.59   -0.43
#  25   -1.74   -1.10    0.35    0.49   -0.16    0.00    0.00      -2.17    2.07   -0.70
#  26    5.37   -1.81    0.75   -0.99   -0.15    0.00    0.00       3.18   -3.02   -0.45
#  27    2.12   -1.62    0.26   -0.78   -0.20    0.00    0.00      -0.22   -1.84   -0.48
#  28    3.87   -1.33    0.14   -1.09   -0.18    0.00    0.00       1.42   -2.73   -0.44
#  29   -4.60   -0.88    0.05    0.57   -0.23    0.00    0.00      -5.08    1.87   -0.74
#  30   11.03   -0.78    0.07   -2.26    0.41    0.00    0.00       8.48   -9.31    1.70
#  31    1.41   -1.01    0.06   -0.25   -0.15    0.00    0.00       0.06   -0.70   -0.41
#  32    0.97   -1.55    0.45   -0.29   -0.15    0.00    0.00      -0.58   -0.87   -0.44
#  33    1.98   -1.69    0.47   -0.48   -0.17    0.00    0.00       0.10   -1.31   -0.47
#  34   -1.67   -1.72    0.30    0.00   -0.17    0.00    0.00      -3.25    0.01   -0.34
#  35    1.93   -1.35    0.61   -0.28   -0.26    0.00    0.00       0.66   -0.51   -0.48
#  36    2.07   -2.32    0.64   -0.76   -0.25    0.00    0.00      -0.62   -1.45   -0.47
#  37    0.67   -1.61    0.26   -0.27   -0.20    0.00    0.00      -1.15   -0.61   -0.46
#  38   -0.96   -0.29    0.02    0.19   -0.07    0.00    0.00      -1.12    1.13   -0.44
#  39   -0.45   -1.08    0.56    0.12   -0.15    0.00    0.00      -1.01    0.55   -0.72
#  40    1.25   -0.89    0.14   -0.57    0.56    0.00    0.00       0.50   -2.52    2.51
#  41   -0.78   -0.95    0.72    0.30   -0.14    0.00    0.00      -0.85    0.61   -0.28
#  42   -1.52   -0.85    1.26    0.28   -0.12    0.00    0.00      -0.95    0.67   -0.28
#  43   -1.35   -0.20    0.01    0.47   -0.08    0.00    0.00      -1.14    1.76   -0.28
#  44    0.01   -0.06    0.00    0.10   -0.02    0.00    0.00       0.03    1.57   -0.28
#  45   -0.07   -0.02    0.00    0.07   -0.01    0.00    0.00      -0.03    2.50   -0.28
#  46   -0.13   -0.06    0.00    0.14   -0.02    0.00    0.00      -0.07    2.21   -0.28
#  47   -0.25   -0.20    0.02    0.25   -0.05    0.00    0.00      -0.23    1.30   -0.28
#  48   -3.01   -0.68    0.47    0.46   -0.09    0.00    0.00      -2.86    1.27   -0.24
#  49   -2.75   -1.43    2.31    0.52   -0.12    0.00    0.00      -1.47    1.11   -0.26
#  50   -3.78   -0.60    0.34    0.56   -0.08    0.00    0.00      -3.55    1.52   -0.21
#  51   -1.27   -0.56    0.49    0.44   -0.08    0.00    0.00      -0.97    1.60   -0.28
#  52   -2.37   -0.41    0.09    0.50   -0.11    0.00    0.00      -2.30    1.33   -0.28
#  53   -5.24   -1.07    1.25    1.38   -0.12    0.00    0.00      -3.80    3.10   -0.28
#  54   -2.17   -0.16    0.02    0.36   -0.04    0.00    0.00      -2.00    2.27   -0.28
#  55   -1.55   -0.10    0.00    0.69   -0.03    0.00    0.00      -0.98    6.43   -0.28
#  56   -1.77   -0.04    0.00    0.25   -0.01    0.00    0.00      -1.57    6.26   -0.28
#  57   -2.62   -0.10    0.00    0.83   -0.03    0.00    0.00      -1.92    7.65   -0.28
#  58   -1.99   -0.06    0.00    0.31   -0.02    0.00    0.00      -1.76    5.48   -0.28
#  59   -5.25   -0.49    0.18    1.93   -0.09    0.00    0.00      -3.71    6.11   -0.28
#  60   -5.36   -0.48    0.10    1.32   -0.12    0.00    0.00      -4.53    3.09   -0.28
#  61   -4.19   -0.52    0.21    0.66   -0.07    0.00    0.00      -3.91    2.07   -0.21
#  62   -2.36   -0.48    0.29    0.52   -0.05    0.00    0.00      -2.08    2.33   -0.21
#  63   -1.78   -0.48    0.25    0.26   -0.07    0.00    0.00      -1.81    1.08   -0.28
#  64   -2.07   -0.81    0.43    0.72   -0.15    0.00    0.00      -1.87    1.38   -0.28
#  65   -2.34   -0.38    0.06    1.06   -0.10    0.00    0.00      -1.70    2.82   -0.27
#  66   -0.49   -0.09    0.01    0.17   -0.02    0.00    0.00      -0.42    2.07   -0.28
#  67   -0.90   -0.04    0.00    0.05   -0.01    0.00    0.00      -0.90    1.06   -0.24

@<TRIPOS>MOLECULE
          T539729        81
   67    71     0     0     0



@<TRIPOS>ATOM
      1 C1         12.9079    -5.3150    89.0260 C.3        1           0.0418
      2 O1         14.0072    -6.2035    88.8158 O.3        1          -0.3016
      3 C2         13.9697    -6.9763    87.7025 C.ar       1           0.3632
      4 C3         15.0207    -7.8675    87.4539 C.ar       1          -0.1816
      5 C4         14.9975    -8.6514    86.3388 C.ar       1          -0.0112
      6 C5         13.8996    -8.5341    85.4633 C.ar       1          -0.1463
      7 C6         13.8116    -9.3111    84.2973 C.ar       1          -0.0387
      8 C7         12.7362    -9.1718    83.4744 C.ar       1          -0.1638
      9 C8         11.7185    -8.2655    83.7750 C.ar       1           0.1519
     10 F1         10.6630    -8.1492    82.9398 F          1          -0.1302
     11 C9         11.7734    -7.4960    84.8992 C.ar       1          -0.1116
     12 C10        10.6633    -6.5238    85.2053 C.3        1          -0.0873
     13 C11         9.6078    -7.2110    86.0328 C.2        1           0.5315
     14 O2          9.7435    -8.3753    86.3436 O.2        1          -0.5162
     15 N1          8.5128    -6.5313    86.4277 N.am       1          -0.6236
     16 C12         8.3231    -5.1197    86.0577 C.3        1           0.0678
     17 C13         7.9897    -4.3278    87.3272 C.3        1           0.0537
     18 O3          6.8996    -4.9592    88.0030 O.3        1          -0.3873
     19 C14         7.1796    -6.2870    88.4527 C.3        1           0.0480
     20 C15         5.9696    -6.8355    89.2115 C.3        1           0.0041
     21 N2          5.9682    -6.3040    90.5809 N.4        1          -0.5042
     22 H1          6.8156    -6.5845    91.0513 H          1           0.4307
     23 H2          5.9180    -5.2968    90.5507 H          1           0.4345
     24 C16         4.8064    -6.8306    91.3095 C.3        1           0.0586
     25 C17         4.8049    -6.2854    92.7144 C.ar       1           0.0584
     26 C18         4.1441    -5.1014    92.9858 C.ar       1          -0.1465
     27 C19         4.1449    -4.6031    94.2807 C.ar       1          -0.0601
     28 C20         4.8126    -5.3149    95.2623 C.ar       1          -0.1311
     29 C21         5.4575    -6.5009    94.9181 C.ar       1           0.1927
     30 N3          5.4287    -6.9460    93.6683 N.ar       1          -0.4655
     31 C22         6.1774    -7.2754    95.9582 C.ar       1          -0.0837
     32 C23         7.2914    -8.0396    95.6148 C.ar       1          -0.0634
     33 C24         7.9579    -8.7584    96.5854 C.ar       1          -0.1536
     34 C25         7.5214    -8.7216    97.9000 C.ar       1           0.1269
     35 F2          8.1774    -9.4268    98.8475 F          1          -0.1287
     36 C26         6.4145    -7.9632    98.2459 C.ar       1          -0.1594
     37 C27         5.7453    -7.2367    97.2828 C.ar       1          -0.0470
     38 C28         7.4688    -7.1807    87.2361 C.3        1           0.0901
     39 C29        12.8684    -7.6132    85.7714 C.ar       1           0.2096
     40 N4         12.9445    -6.8745    86.8845 N.ar       1          -0.5469
     41 H3         13.0630    -4.7572    89.9495 H          1           0.0603
     42 H4         12.8373    -4.6200    88.1892 H          1           0.0533
     43 H5         11.9848    -5.8901    89.0995 H          1           0.0984
     44 H6         15.8484    -7.9337    88.1444 H          1           0.1506
     45 H7         15.7999    -9.3439    86.1316 H          1           0.1549
     46 H8         14.5934   -10.0155    84.0543 H          1           0.1466
     47 H9         12.6699    -9.7700    82.5776 H          1           0.1459
     48 H10        11.0655    -5.6762    85.7603 H          1           0.1171
     49 H11        10.2219    -6.1713    84.2731 H          1           0.1069
     50 H12         9.2389    -4.7307    85.6123 H          1           0.1058
     51 H13         7.5025    -5.0340    85.3454 H          1           0.0881
     52 H14         8.8607    -4.3065    87.9823 H          1           0.0669
     53 H15         7.7105    -3.3092    87.0582 H          1           0.1230
     54 H16         8.0472    -6.2725    89.1125 H          1           0.0893
     55 H17         5.0541    -6.5325    88.7031 H          1           0.1461
     56 H18         6.0239    -7.9236    89.2441 H          1           0.1513
     57 H19         3.8910    -6.5276    90.8011 H          1           0.1490
     58 H20         4.8607    -7.9187    91.3421 H          1           0.1487
     59 H21         3.6326    -4.5694    92.1973 H          1           0.1472
     60 H22         3.6362    -3.6803    94.5175 H          1           0.1530
     61 H23         4.8337    -4.9559    96.2806 H          1           0.1521
     62 H24         7.6320    -8.0691    94.5903 H          1           0.1397
     63 H25         8.8210    -9.3511    96.3203 H          1           0.1467
     64 H26         6.0777    -7.9374    99.2717 H          1           0.1439
     65 H27         4.8853    -6.6424    97.5539 H          1           0.1418
     66 H28         6.5637    -7.2989    86.6404 H          1           0.0875
     67 H29         7.8185    -8.1573    87.5712 H          1           0.1116
@<TRIPOS>BOND
     1    1    2 1
     2    1   41 1
     3    1   42 1
     4    1   43 1
     5    2    3 1
     6    3   40 ar
     7    3    4 ar
     8    4    5 ar
     9    4   44 1
    10    5    6 ar
    11    5   45 1
    12    6   39 ar
    13    6    7 ar
    14    7    8 ar
    15    7   46 1
    16    8    9 ar
    17    8   47 1
    18    9   10 1
    19    9   11 ar
    20   11   12 1
    21   11   39 ar
    22   12   13 1
    23   12   48 1
    24   12   49 1
    25   13   14 2
    26   13   15 am
    27   15   38 1
    28   15   16 1
    29   16   17 1
    30   16   50 1
    31   16   51 1
    32   17   18 1
    33   17   52 1
    34   17   53 1
    35   18   19 1
    36   19   20 1
    37   19   38 1
    38   19   54 1
    39   20   21 1
    40   20   55 1
    41   20   56 1
    42   21   22 1
    43   21   23 1
    44   21   24 1
    45   24   25 1
    46   24   57 1
    47   24   58 1
    48   25   30 ar
    49   25   26 ar
    50   26   27 ar
    51   26   59 1
    52   27   28 ar
    53   27   60 1
    54   28   29 ar
    55   28   61 1
    56   29   30 ar
    57   29   31 1
    58   31   37 ar
    59   31   32 ar
    60   32   33 ar
    61   32   62 1
    62   33   34 ar
    63   33   63 1
    64   34   35 1
    65   34   36 ar
    66   36   37 ar
    67   36   64 1
    68   37   65 1
    69   38   66 1
    70   38   67 1
    71   39   40 ar
##########                 Name:              T535409
##########          Protonation:                   11
##########               SMILES:   Cc1c(sc2c1cccc2)C(=O)[C@H]3[C@H](C3)C[NH+]4CC[C@@H](CC4)[NH+]5CCCC5
##########            Long Name:   2-[(4-pyrrolidin-1-ium-1-ylpiperidin-1-ium-1-yl)methyl]cyclopropyl]methanone
##########          FlexRecCode: 1
##########               Number:                  131
##########   Ligand Source File: /raidb/db2/rgc/tcams/tcams-0001348.db2.gz
##########           GlobalRank: 286
##########                 Rank:                    1
##########               Setnum:                   14
##########             Matchnum:                 5901
##########                Cloud:                    1
##########        Electrostatic:           -53.075600
##########        Van der Waals:           -24.951944
##########  Ligand Polar Desolv:            18.294628
########## Ligand Apolar Desolv:            -5.527890
##########      Internal Energy:             0.000000
##########      Receptor Energy: 0.0
########## Receptor Desolvation:             0.000000
########## Receptor Hydrophobic:             0.000000
##########         Total Energy: -65.26
##########        Ligand Charge:             2.000000
##########            Arbitrary:    +999.9990
##########     heavy atom count:   27
##########           pose count:    1
##########        Ligand Energy:             0.000000
# num electro vdwattr vdwrepu polsolv apolsol rdesolv rhydroe totalscore fullpol fullapo
#   1    1.99   -0.97    0.13   -0.75   -0.07    0.00    0.00       0.33   -1.81   -0.18
#   2   -0.31   -1.37    0.20   -0.35   -0.15    0.00    0.00      -1.99   -0.95   -0.40
#   3    0.91   -2.10    2.14   -1.16   -0.09    0.00    0.00      -0.31   -3.93   -0.30
#   4    0.01   -4.59    5.47    0.41   -0.27    0.00    0.00       1.04    1.22   -0.79
#   5    0.42   -1.64    0.29   -0.73   -0.12    0.00    0.00      -1.79   -1.92   -0.32
#   6    0.66   -1.60    0.32   -0.62   -0.22    0.00    0.00      -1.46   -1.34   -0.47
#   7    0.54   -2.39    1.64   -0.63   -0.25    0.00    0.00      -1.10   -1.21   -0.48
#   8    1.97   -3.35    3.72   -0.99   -0.26    0.00    0.00       1.10   -1.79   -0.47
#   9    0.68   -2.41    0.98   -0.60   -0.24    0.00    0.00      -1.58   -1.12   -0.45
#  10    1.16   -1.73    0.35   -0.70   -0.17    0.00    0.00      -1.08   -1.74   -0.41
#  11   -1.87   -1.58    1.25    2.55   -0.07    0.00    0.00       0.28   10.79   -0.28
#  12    1.34   -1.50    0.90   -2.81    0.07    0.00    0.00      -2.00  -10.79    0.27
#  13    2.18   -0.39    0.03   -1.52   -0.08    0.00    0.00       0.23   -7.80   -0.39
#  14    3.36   -0.62    0.12   -1.01   -0.10    0.00    0.00       1.75   -4.20   -0.41
#  15    4.91   -0.58    0.11   -0.48   -0.06    0.00    0.00       3.90   -2.16   -0.29
#  16   -0.79   -0.82    0.18    0.41   -0.07    0.00    0.00      -1.10    1.34   -0.24
#  17    9.03   -0.67    0.04   -4.66    0.08    0.00    0.00       3.82  -16.61    0.27
#  18   -7.47   -0.01    0.00    2.04    0.05    0.00    0.00      -5.40   23.18    0.54
#  19    0.08   -0.86    0.25   -0.18   -0.11    0.00    0.00      -0.81   -0.64   -0.38
#  20    2.25   -0.63    0.11   -2.14   -0.06    0.00    0.00      -0.48   -7.99   -0.22
#  21   -0.36   -0.86    0.09    0.65   -0.06    0.00    0.00      -0.54    1.67   -0.15
#  22    4.27   -1.07    0.21   -3.26   -0.09    0.00    0.00       0.06   -7.94   -0.22
#  23    0.02   -1.05    0.16   -0.03   -0.15    0.00    0.00      -1.04   -0.07   -0.38
#  24    9.48   -1.20    0.21   -7.40    0.12    0.00    0.00       1.21  -16.99    0.28
#  25  -12.73   -0.04    0.00    6.60    0.16    0.00    0.00      -6.00   22.79    0.56
#  26    0.23   -1.43    0.23    0.56   -0.22    0.00    0.00      -0.63    1.01   -0.39
#  27    3.54   -1.62    0.36   -3.85   -0.18    0.00    0.00      -1.76   -6.14   -0.29
#  28    3.49   -1.60    0.57   -3.40   -0.17    0.00    0.00      -1.11   -5.99   -0.30
#  29    0.24   -1.13    0.26    0.35   -0.17    0.00    0.00      -0.45    0.80   -0.39
#  30   -1.62   -0.20    0.01    0.25   -0.06    0.00    0.00      -1.62    1.18   -0.28
#  31   -1.30   -0.43    0.07    0.98   -0.09    0.00    0.00      -0.76    2.35   -0.21
#  32   -1.42   -0.42    0.26    0.30   -0.06    0.00    0.00      -1.35    1.08   -0.23
#  33   -1.06   -0.24    0.01    0.64   -0.09    0.00    0.00      -0.74    1.99   -0.28
#  34   -1.32   -0.44    0.12    1.11   -0.13    0.00    0.00      -0.67    2.32   -0.28
#  35   -3.41   -1.02    1.28    1.11   -0.15    0.00    0.00      -2.19    2.14   -0.28
#  36   -2.15   -0.44    0.06    1.07   -0.12    0.00    0.00      -1.58    2.22   -0.24
#  37   -0.90   -0.11    0.01    0.27   -0.03    0.00    0.00      -0.76    2.58   -0.26
#  38   -3.42   -0.25    0.05    0.75   -0.06    0.00    0.00      -2.94    3.42   -0.28
#  39   -3.04   -0.15    0.02    0.60   -0.04    0.00    0.00      -2.61    3.89   -0.28
#  40   -3.48   -0.15    0.01    1.21   -0.04    0.00    0.00      -2.45    8.61   -0.28
#  41   -4.21   -0.17    0.01    0.75   -0.04    0.00    0.00      -3.67    4.83   -0.26
#  42   -7.22   -0.68    0.60    1.74   -0.08    0.00    0.00      -5.64    5.30   -0.24
#  43   -2.94   -0.93    1.33    2.29   -0.09    0.00    0.00      -0.35    7.01   -0.28
#  44   -2.32   -0.14    0.01    0.93   -0.03    0.00    0.00      -1.55    6.72   -0.24
#  45   -1.04   -0.26    0.11    1.17   -0.04    0.00    0.00      -0.06    6.52   -0.24
#  46   -1.39   -0.10    0.00    0.81   -0.03    0.00    0.00      -0.72    7.64   -0.28
#  47   -2.93   -0.50    0.16    3.05   -0.10    0.00    0.00      -0.33    8.65   -0.27
#  48   -3.47   -0.86    1.49    2.45   -0.09    0.00    0.00      -0.49    6.27   -0.24
#  49   -3.15   -0.26    0.04    1.80   -0.07    0.00    0.00      -1.63    7.47   -0.28
#  50   -4.08   -0.33    0.05    1.79   -0.08    0.00    0.00      -2.66    6.19   -0.28
#  51   -4.21   -0.60    0.23    2.67   -0.11    0.00    0.00      -2.03    6.80   -0.28
#  52   -3.62   -0.72    0.32    3.63   -0.12    0.00    0.00      -0.52    7.59   -0.26
#  53   -3.30   -0.66    0.34    2.67   -0.11    0.00    0.00      -1.07    6.70   -0.27
#  54   -2.52   -0.84    0.42    1.26   -0.14    0.00    0.00      -1.82    2.48   -0.28
#  55   -2.93   -0.60    0.18    0.73   -0.16    0.00    0.00      -2.78    1.29   -0.28
#  56   -2.61   -0.59    0.25    0.68   -0.14    0.00    0.00      -2.41    1.39   -0.28
#  57   -2.56   -0.71    0.47    0.79   -0.13    0.00    0.00      -2.14    1.65   -0.28
#  58   -2.26   -0.40    0.10    2.46   -0.08    0.00    0.00      -0.19    7.30   -0.25
#  59   -2.40   -0.37    0.13    2.04   -0.08    0.00    0.00      -0.67    7.14   -0.28

@<TRIPOS>MOLECULE
          T535409        11
   59    63     0     0     0



@<TRIPOS>ATOM
      1 C1          5.3059    -6.9279    96.9470 C.3        1          -0.1267
      2 C2          5.7675    -8.2786    96.4633 C.2        1           0.0350
      3 C3          5.2868    -8.7859    95.2921 C.2        1          -0.2800
      4 S1          6.1169   -10.3607    95.1702 S.3        1           0.0749
      5 C4          7.0585   -10.2721    96.6724 C.ar       1          -0.0789
      6 C5          7.9574   -11.1108    97.2970 C.ar       1          -0.0921
      7 C6          8.5272   -10.7271    98.4937 C.ar       1          -0.0536
      8 C7          8.1871    -9.5004    99.0524 C.ar       1          -0.1254
      9 C8          7.3041    -8.6639    98.4499 C.ar       1          -0.0494
     10 C9          6.6979    -9.0151    97.2150 C.ar       1          -0.1325
     11 C10         4.3560    -8.2053    94.3932 C.2        1           0.4747
     12 O1          3.2360    -7.9313    94.7724 O.2        1          -0.4665
     13 C11         4.7577    -7.9287    92.9673 C.3        1          -0.1770
     14 C12         6.0500    -7.1425    92.7373 C.3        1          -0.1298
     15 C13         4.6952    -6.4782    92.4846 C.3        1          -0.1815
     16 C14         4.2294    -5.4196    93.4863 C.3        1           0.0240
     17 N1          2.7633    -5.4400    93.5742 N.4        1          -0.3871
     18 H1          2.4584    -6.3515    93.8812 H          1           0.4242
     19 C15         2.1913    -5.1538    92.2530 C.3        1          -0.0045
     20 C16         0.6659    -5.2537    92.3209 C.3        1          -0.1687
     21 C17         0.1381    -4.2380    93.3382 C.3        1           0.0176
     22 C18         0.7977    -4.4995    94.6953 C.3        1          -0.1681
     23 C19         2.3182    -4.4265    94.5382 C.3        1          -0.0008
     24 N2         -1.3184    -4.3806    93.4644 N.4        1          -0.3924
     25 H2         -1.5515    -5.3114    93.7764 H          1           0.4284
     26 C20        -1.8512    -3.3727    94.4165 C.3        1          -0.0093
     27 C21        -3.3456    -3.2667    94.0212 C.3        1          -0.1460
     28 C22        -3.3053    -3.3906    92.4807 C.3        1          -0.1464
     29 C23        -1.9726    -4.0984    92.1684 C.3        1          -0.0115
     30 H3          4.5903    -6.5129    96.2372 H          1           0.0877
     31 H4          4.8306    -7.0341    97.9221 H          1           0.0910
     32 H5          6.1630    -6.2598    97.0314 H          1           0.0753
     33 H6          8.2132   -12.0614    96.8529 H          1           0.1414
     34 H7          9.2323   -11.3752    98.9928 H          1           0.1467
     35 H8          8.6362    -9.2059    99.9894 H          1           0.1391
     36 H9          7.0631    -7.7185    98.9130 H          1           0.1334
     37 H10         4.5085    -8.7095    92.2487 H          1           0.1425
     38 H11         6.6096    -6.8254    93.6174 H          1           0.1173
     39 H12         6.6514    -7.4061    91.8673 H          1           0.1264
     40 H13         4.4052    -6.3048    91.4482 H          1           0.1369
     41 H14         4.6552    -5.6347    94.4664 H          1           0.1401
     42 H15         4.5600    -4.4352    93.1547 H          1           0.1499
     43 H16         2.4758    -4.1478    91.9447 H          1           0.1417
     44 H17         2.5704    -5.8756    91.5294 H          1           0.1523
     45 H18         0.2431    -5.0391    91.3394 H          1           0.1351
     46 H19         0.3803    -6.2595    92.6289 H          1           0.1108
     47 H20         0.3791    -3.2287    93.0043 H          1           0.1533
     48 H21         0.4692    -3.7460    95.4109 H          1           0.1356
     49 H22         0.5149    -5.4896    95.0526 H          1           0.1112
     50 H23         2.7910    -4.6108    95.5028 H          1           0.1511
     51 H24         2.6000    -3.4364    94.1797 H          1           0.1426
     52 H25        -1.7489    -3.7222    95.4439 H          1           0.1388
     53 H26        -1.3491    -2.4144    94.2833 H          1           0.1374
     54 H27        -3.9192    -4.0837    94.4591 H          1           0.1020
     55 H28        -3.7562    -2.3023    94.3201 H          1           0.1227
     56 H29        -4.1435    -3.9911    92.1275 H          1           0.1104
     57 H30        -3.3264    -2.4025    92.0212 H          1           0.1083
     58 H31        -1.3389    -3.4471    91.5664 H          1           0.1326
     59 H32        -2.1621    -5.0312    91.6370 H          1           0.1361
@<TRIPOS>BOND
     1    1    2 1
     2    1   30 1
     3    1   31 1
     4    1   32 1
     5    2   10 1
     6    2    3 2
     7    3    4 1
     8    3   11 1
     9    4    5 1
    10    5   10 ar
    11    5    6 ar
    12    6    7 ar
    13    6   33 1
    14    7    8 ar
    15    7   34 1
    16    8    9 ar
    17    8   35 1
    18    9   10 ar
    19    9   36 1
    20   11   12 2
    21   11   13 1
    22   13   15 1
    23   13   14 1
    24   13   37 1
    25   14   15 1
    26   14   38 1
    27   14   39 1
    28   15   16 1
    29   15   40 1
    30   16   17 1
    31   16   41 1
    32   16   42 1
    33   17   18 1
    34   17   23 1
    35   17   19 1
    36   19   20 1
    37   19   43 1
    38   19   44 1
    39   20   21 1
    40   20   45 1
    41   20   46 1
    42   21   22 1
    43   21   24 1
    44   21   47 1
    45   22   23 1
    46   22   48 1
    47   22   49 1
    48   23   50 1
    49   23   51 1
    50   24   25 1
    51   24   29 1
    52   24   26 1
    53   26   27 1
    54   26   52 1
    55   26   53 1
    56   27   28 1
    57   27   54 1
    58   27   55 1
    59   28   29 1
    60   28   56 1
    61   28   57 1
    62   29   58 1
    63   29   59 1
##########                 Name:              T530775
##########          Protonation:                   43
##########               SMILES:   Cc1ccc(cc1)CNC(=O)[C@H](CCC[NH3+])Nc2c(c[nH+]/c(=N\c3ccccc3)/[nH]2)C
##########            Long Name:   o-1H-pyrimidin-3-ium-6-yl]amino]-5-oxo-5-(p-tolylmethylamino)pentyl]ammonium
##########          FlexRecCode: 1
##########               Number:                  277
##########   Ligand Source File: /raidb/db2/rgc/tcams/tcams-0000744.db2.gz
##########           GlobalRank: 288
##########                 Rank:                    1
##########               Setnum:                   94
##########             Matchnum:                  693
##########                Cloud:                    1
##########        Electrostatic:           -54.967632
##########        Van der Waals:           -27.282381
##########  Ligand Polar Desolv:            20.498705
########## Ligand Apolar Desolv:            -3.480896
##########      Internal Energy:             0.000000
##########      Receptor Energy: 0.0
########## Receptor Desolvation:             0.000000
########## Receptor Hydrophobic:             0.000000
##########         Total Energy: -65.23
##########        Ligand Charge:             2.000000
##########            Arbitrary:    +999.9990
##########     heavy atom count:   31
##########           pose count:    1
##########        Ligand Energy:             0.000000
# num electro vdwattr vdwrepu polsolv apolsol rdesolv rhydroe totalscore fullpol fullapo
#   1    0.82   -0.29    0.02   -0.26   -0.03    0.00    0.00       0.26   -1.77   -0.20
#   2    0.45   -0.41    0.03   -0.26   -0.06    0.00    0.00      -0.26   -1.70   -0.41
#   3    0.22   -0.79    0.34   -0.37   -0.07    0.00    0.00      -0.66   -2.50   -0.45
#   4    0.23   -0.58    0.13   -0.24   -0.06    0.00    0.00      -0.52   -1.75   -0.45
#   5    1.56   -0.37    0.01   -0.29   -0.05    0.00    0.00       0.87   -2.00   -0.37
#   6   -2.07   -0.27    0.01    0.64   -0.07    0.00    0.00      -1.76    3.88   -0.44
#   7   10.00   -0.47    0.01   -3.58    0.42    0.00    0.00       6.38  -19.35    2.27
#   8  -11.12   -0.79    0.05    3.91   -0.16    0.00    0.00      -8.11   14.44   -0.60
#   9   14.14   -1.74    0.56   -5.00    0.13    0.00    0.00       8.09  -14.12    0.38
#  10   -2.25   -0.66    0.04    1.52   -0.09    0.00    0.00      -1.45    4.29   -0.26
#  11    3.51   -1.25    0.37   -2.43   -0.09    0.00    0.00       0.11   -5.73   -0.21
#  12    4.20   -0.77    0.07   -3.22   -0.06    0.00    0.00       0.21   -8.58   -0.16
#  13    0.11   -1.03    0.11    0.35   -0.24    0.00    0.00      -0.69    0.73   -0.49
#  14   15.62   -2.29    2.74  -14.59    0.38    0.00    0.00       1.87  -32.65    0.86
#  15  -10.80   -0.03    0.00    9.09    0.23    0.00    0.00      -1.51   24.03    0.60
#  16   -8.77   -0.03    0.00    6.70    0.16    0.00    0.00      -1.93   23.88    0.58
#  17  -15.35   -0.30    0.33    9.33    0.22    0.00    0.00      -5.77   24.34    0.58
#  18   17.23   -1.89    0.34  -10.56    0.62    0.00    0.00       5.74  -23.90    1.40
#  19  -14.30   -1.50    0.22    9.23   -0.66    0.00    0.00      -7.01   22.87   -1.63
#  20    9.29   -2.07    0.54   -5.03   -0.20    0.00    0.00       2.54  -10.46   -0.41
#  21    4.58   -2.59    1.13   -2.25   -0.11    0.00    0.00       0.77   -3.93   -0.19
#  22   -8.50   -1.86    0.45    5.78   -0.44    0.00    0.00      -4.57   12.56   -0.95
#  23   11.40   -1.26    0.14   -9.50    0.39    0.00    0.00       1.17  -22.77    0.93
#  24   -8.16   -0.02    0.00    4.37    0.10    0.00    0.00      -3.70   17.05    0.41
#  25   -7.54   -1.25    0.11    8.99   -1.78    0.00    0.00      -1.47   23.43   -4.64
#  26   10.26   -1.23    0.09   -8.91    0.28    0.00    0.00       0.49  -23.15    0.74
#  27    3.02   -2.55    0.92   -8.13    0.87    0.00    0.00      -5.87  -19.07    2.05
#  28   -0.46   -2.43    1.05    1.56   -0.24    0.00    0.00      -0.53    3.71   -0.58
#  29    1.09   -1.44    0.19   -1.52   -0.14    0.00    0.00      -1.82   -4.15   -0.37
#  30    0.81   -1.24    0.11   -1.10   -0.19    0.00    0.00      -1.61   -2.69   -0.47
#  31    1.14   -1.67    0.33   -1.96   -0.24    0.00    0.00      -2.39   -3.86   -0.47
#  32    1.36   -3.46    4.37   -1.56   -0.26    0.00    0.00       0.45   -2.87   -0.47
#  33    1.20   -4.16    5.96   -2.00   -0.25    0.00    0.00       0.74   -3.72   -0.47
#  34    1.94   -0.59    0.06   -0.36   -0.09    0.00    0.00       0.96   -1.92   -0.45
#  35    1.94   -0.53    0.04   -0.49   -0.09    0.00    0.00       0.87   -2.46   -0.45
#  36   -0.36   -0.07    0.00    0.08   -0.02    0.00    0.00      -0.37    1.26   -0.28
#  37   -0.49   -0.06    0.00    0.05   -0.02    0.00    0.00      -0.51    0.84   -0.28
#  38   -0.55   -0.16    0.04    0.08   -0.03    0.00    0.00      -0.63    0.67   -0.28
#  39    0.03   -0.28    0.24    0.29   -0.04    0.00    0.00       0.24    2.24   -0.28
#  40   -0.03   -0.12    0.02    0.34   -0.03    0.00    0.00       0.19    3.67   -0.28
#  41   -1.67   -0.14    0.01    0.14   -0.04    0.00    0.00      -1.70    0.90   -0.28
#  42   -0.56   -0.05    0.00    0.07   -0.01    0.00    0.00      -0.56    1.42   -0.28
#  43   -3.78   -0.01    0.00    1.29    0.05    0.00    0.00      -2.44   13.86    0.53
#  44   -2.76   -0.16    0.01    1.12   -0.04    0.00    0.00      -1.83    7.37   -0.23
#  45   -3.12   -0.68    0.60    1.55   -0.11    0.00    0.00      -1.76    3.83   -0.28
#  46   -2.83   -0.60    0.25    2.09   -0.10    0.00    0.00      -1.19    5.40   -0.26
#  47   -1.66   -0.16    0.01    1.07   -0.04    0.00    0.00      -0.77    6.41   -0.22
#  48   -2.38   -0.30    0.06    1.35   -0.05    0.00    0.00      -1.32    4.95   -0.20
#  49   -3.60   -0.43    0.07    2.70   -0.12    0.00    0.00      -1.38    6.57   -0.28
#  50   -3.47   -0.32    0.03    2.28   -0.09    0.00    0.00      -1.58    6.85   -0.28
#  51  -12.85   -0.08    0.00    6.34    0.16    0.00    0.00      -6.42   15.17    0.39
#  52   -4.57   -1.26    1.33    2.18   -0.17    0.00    0.00      -2.49    3.64   -0.28
#  53   -5.01   -0.82    0.56    1.41   -0.14    0.00    0.00      -4.00    2.82   -0.28
#  54   -3.03   -1.20    0.69    0.93   -0.13    0.00    0.00      -2.74    1.55   -0.22
#  55   -7.39   -0.49    0.09    5.55   -0.14    0.00    0.00      -2.37   11.19   -0.28
#  56   -6.27   -0.02    0.00    5.75    0.09    0.00    0.00      -0.45   20.24    0.30
#  57   -0.44   -0.26    0.03    1.86   -0.06    0.00    0.00       1.13    8.24   -0.28
#  58   -1.21   -0.20    0.01    0.78   -0.05    0.00    0.00      -0.67    4.02   -0.28
#  59   -1.46   -0.35    0.08    0.62   -0.11    0.00    0.00      -1.22    1.61   -0.28
#  60   -3.28   -1.06    1.35    0.72   -0.15    0.00    0.00      -2.42    1.37   -0.28
#  61   -2.08   -0.92    0.65    1.15   -0.15    0.00    0.00      -1.34    2.21   -0.28
#  62   -4.41   -0.33    0.18    0.51   -0.05    0.00    0.00      -4.10    2.78   -0.28
#  63   -2.54   -0.21    0.04    0.33   -0.05    0.00    0.00      -2.43    1.74   -0.28

@<TRIPOS>MOLECULE
          T530775        43
   63    65     0     0     0



@<TRIPOS>ATOM
      1 C1          7.5279   -10.5859    91.7472 C.3        1          -0.1266
      2 C2          6.3651    -9.6293    91.6859 C.ar       1          -0.0610
      3 C3          5.0824   -10.1116    91.5036 C.ar       1          -0.1224
      4 C4          4.0157    -9.2339    91.4472 C.ar       1          -0.0944
      5 C5          4.2316    -7.8745    91.5738 C.ar       1          -0.1359
      6 C6          3.0688    -6.9179    91.5119 C.3        1           0.1622
      7 N1          2.5349    -6.7103    92.8603 N.am       1          -0.7038
      8 C7          2.5196    -5.4738    93.3960 C.2        1           0.5084
      9 O1          2.9477    -4.5328    92.7618 O.2        1          -0.5093
     10 C8          1.9704    -5.2603    94.7831 C.3        1           0.0941
     11 C9          0.7901    -4.2889    94.7204 C.3        1          -0.1386
     12 C10        -0.3034    -4.8722    93.8232 C.3        1          -0.1747
     13 C11        -1.4838    -3.9009    93.7605 C.3        1          -0.0047
     14 N2         -2.5337    -4.4609    92.8991 N.4        1          -0.6401
     15 H1         -3.3121    -3.8204    92.8578 H          1           0.4483
     16 H2         -2.1660    -4.6038    91.9703 H          1           0.4383
     17 H3         -2.8439    -5.3434    93.2773 H          1           0.4328
     18 N3          3.0175    -4.7017    95.6422 N.pl3      1          -0.6363
     19 C12         4.1792    -5.4001    95.8495 C.2        1           0.5586
     20 C13         5.4013    -4.8575    95.4884 C.2        1          -0.2838
     21 C14         5.4724    -3.4891    94.8612 C.3        1          -0.1044
     22 C15         6.5612    -5.5893    95.7116 C.2        1           0.2948
     23 N4          6.4986    -6.7871    96.2612 N.pl3      1          -0.5858
     24 H4          7.3171    -7.2855    96.4109 H          1           0.4569
     25 C16         5.3282    -7.3260    96.6158 C.2        1           0.5479
     26 N5          4.1516    -6.6418    96.4216 N.pl3      1          -0.6035
     27 N6          5.3018    -8.5318    97.1651 N.2        1          -0.5041
     28 C17         6.4706    -9.1635    97.4821 C.ar       1           0.0610
     29 C18         7.1020    -9.9850    96.5437 C.ar       1          -0.1728
     30 C19         8.2820   -10.6190    96.8709 C.ar       1          -0.0938
     31 C20         8.8414   -10.4436    98.1245 C.ar       1          -0.1030
     32 C21         8.2220    -9.6321    99.0589 C.ar       1          -0.0893
     33 C22         7.0445    -8.9869    98.7444 C.ar       1          -0.0951
     34 C23         5.5142    -7.3925    91.7575 C.ar       1          -0.0931
     35 C24         6.5804    -8.2702    91.8176 C.ar       1          -0.1210
     36 H5          7.1656   -11.6067    91.6248 H          1           0.0764
     37 H6          8.2330   -10.3525    90.9493 H          1           0.0731
     38 H7          8.0264   -10.4906    92.7120 H          1           0.0733
     39 H8          4.9136   -11.1736    91.4047 H          1           0.1284
     40 H9          3.0137    -9.6106    91.3040 H          1           0.1235
     41 H10         3.4038    -5.9647    91.1030 H          1           0.0871
     42 H11         2.2899    -7.3337    90.8728 H          1           0.0879
     43 H12         2.1926    -7.4630    93.3674 H          1           0.4051
     44 H13         1.6353    -6.2136    95.1919 H          1           0.1255
     45 H14         0.3929    -4.1346    95.7236 H          1           0.1108
     46 H15         1.1254    -3.3357    94.3116 H          1           0.1184
     47 H16         0.0938    -5.0266    92.8199 H          1           0.0959
     48 H17        -0.6386    -5.8256    94.2319 H          1           0.0836
     49 H18        -1.8809    -3.7465    94.7638 H          1           0.1438
     50 H19        -1.1486    -2.9476    93.3518 H          1           0.1472
     51 H20         2.8889    -3.8379    96.0642 H          1           0.4551
     52 H21         6.5123    -3.2397    94.6502 H          1           0.0901
     53 H22         4.9020    -3.4851    93.9323 H          1           0.0999
     54 H23         5.0541    -2.7528    95.5474 H          1           0.0797
     55 H24         7.5192    -5.1755    95.4334 H          1           0.2176
     56 H25         3.3069    -7.0391    96.6854 H          1           0.4464
     57 H26         6.6664   -10.1230    95.5652 H          1           0.1185
     58 H27         8.7708   -11.2543    96.1471 H          1           0.1367
     59 H28         9.7657   -10.9427    98.3750 H          1           0.1392
     60 H29         8.6641    -9.5003   100.0354 H          1           0.1419
     61 H30         6.5644    -8.3505    99.4731 H          1           0.1359
     62 H31         5.6828    -6.3304    91.8567 H          1           0.1242
     63 H32         7.5820    -7.8940    91.9646 H          1           0.1290
@<TRIPOS>BOND
     1    1    2 1
     2    1   36 1
     3    1   37 1
     4    1   38 1
     5    2   35 ar
     6    2    3 ar
     7    3    4 ar
     8    3   39 1
     9    4    5 ar
    10    4   40 1
    11    5    6 1
    12    5   34 ar
    13    6    7 1
    14    6   41 1
    15    6   42 1
    16    7    8 am
    17    7   43 1
    18    8    9 2
    19    8   10 1
    20   10   11 1
    21   10   18 1
    22   10   44 1
    23   11   12 1
    24   11   45 1
    25   11   46 1
    26   12   13 1
    27   12   47 1
    28   12   48 1
    29   13   14 1
    30   13   49 1
    31   13   50 1
    32   14   15 1
    33   14   16 1
    34   14   17 1
    35   18   19 1
    36   18   51 1
    37   19   26 1
    38   19   20 2
    39   20   21 1
    40   20   22 1
    41   21   52 1
    42   21   53 1
    43   21   54 1
    44   22   23 2
    45   22   55 1
    46   23   24 1
    47   23   25 1
    48   25   26 1
    49   25   27 2
    50   26   56 1
    51   27   28 1
    52   28   33 ar
    53   28   29 ar
    54   29   30 ar
    55   29   57 1
    56   30   31 ar
    57   30   58 1
    58   31   32 ar
    59   31   59 1
    60   32   33 ar
    61   32   60 1
    62   33   61 1
    63   34   35 ar
    64   34   62 1
    65   35   63 1
##########                 Name:              T368832
##########          Protonation:                   94
##########               SMILES:   c1cc(ccc1NC(=O)N2CCC[NH+](CC2)CCCCCNC(=O)/C=C\c3ccc(c(c3)Cl)Cl)Cl
##########            Long Name:   4-dichlorophenyl)prop-2-enoyl]amino]pentyl]-1,4-diazepan-4-ium-1-carboxamide
##########          FlexRecCode: 1
##########               Number:                   16
##########   Ligand Source File: /raidb/db2/rgc/tcams/tcams-0001974.db2.gz
##########           GlobalRank: 288
##########                 Rank:                    1
##########               Setnum:                  300
##########             Matchnum:                 2478
##########                Cloud:                    1
##########        Electrostatic:           -37.111523
##########        Van der Waals:           -33.197235
##########  Ligand Polar Desolv:             8.961647
########## Ligand Apolar Desolv:            -3.887478
##########      Internal Energy:             0.000000
##########      Receptor Energy: 0.0
########## Receptor Desolvation:             0.000000
########## Receptor Hydrophobic:             0.000000
##########         Total Energy: -65.23
##########        Ligand Charge:             1.000000
##########            Arbitrary:    +999.9990
##########     heavy atom count:   35
##########           pose count:    1
##########        Ligand Energy:             0.000000
# num electro vdwattr vdwrepu polsolv apolsol rdesolv rhydroe totalscore fullpol fullapo
#   1    0.42   -3.76    0.74   -0.27   -0.58    0.00    0.00      -3.45   -0.46   -0.99
#   2    0.41   -1.75    0.53   -0.26   -0.14    0.00    0.00      -1.22   -0.55   -0.30
#   3    0.48   -1.83    0.45   -0.35   -0.19    0.00    0.00      -1.44   -0.87   -0.46
#   4    0.81   -1.77    0.37   -0.53   -0.17    0.00    0.00      -1.30   -1.41   -0.46
#   5   -1.88   -1.54    0.19    0.89   -0.31    0.00    0.00      -2.65    1.94   -0.67
#   6   10.41   -1.66    0.35   -4.88    0.77    0.00    0.00       4.98  -10.58    1.67
#   7  -10.73   -1.22    0.11    4.13   -0.77    0.00    0.00      -8.49   10.82   -2.03
#   8    4.48   -1.67    0.34   -2.65    0.13    0.00    0.00       0.62   -6.56    0.32
#   9   14.96   -0.99    0.06   -4.68    0.49    0.00    0.00       9.84  -13.63    1.44
#  10   -2.40   -0.61    0.03    0.67   -0.15    0.00    0.00      -2.47    2.01   -0.46
#  11    4.46   -0.61    0.06   -1.21   -0.07    0.00    0.00       2.63   -4.41   -0.24
#  12    0.21   -0.41    0.03   -0.06   -0.07    0.00    0.00      -0.30   -0.28   -0.36
#  13   11.85   -1.22    0.80   -2.89    0.05    0.00    0.00       8.58  -11.34    0.18
#  14  -21.77   -0.11    0.03    4.46    0.12    0.00    0.00     -17.28   16.89    0.44
#  15    0.46   -0.44    0.05   -0.02   -0.07    0.00    0.00      -0.03   -0.09   -0.35
#  16    3.26   -0.45    0.05   -0.79   -0.04    0.00    0.00       2.03   -4.08   -0.20
#  17    1.42   -0.17    0.00   -0.32   -0.02    0.00    0.00       0.91   -2.97   -0.22
#  18    1.02   -0.22    0.01   -0.33   -0.03    0.00    0.00       0.45   -2.42   -0.22
#  19   -0.41   -0.23    0.02    0.18   -0.05    0.00    0.00      -0.49    1.55   -0.42
#  20    2.27   -1.03    0.43   -1.79    0.42    0.00    0.00       0.30   -9.91    2.33
#  21   -1.26   -0.52    0.05    0.79   -0.09    0.00    0.00      -1.03    5.02   -0.58
#  22    0.92   -0.19    0.00   -0.26    0.03    0.00    0.00       0.50   -2.86    0.29
#  23    0.50   -0.90    0.08   -0.70   -0.14    0.00    0.00      -1.15   -2.22   -0.45
#  24    0.02   -1.29    0.39   -0.18   -0.14    0.00    0.00      -1.20   -0.58   -0.44
#  25    0.09   -1.15    0.55   -0.06   -0.07    0.00    0.00      -0.64   -0.26   -0.31
#  26    0.03   -0.77    0.20   -0.03   -0.06    0.00    0.00      -0.61   -0.14   -0.31
#  27    0.11   -0.49    0.05   -0.08   -0.08    0.00    0.00      -0.49   -0.45   -0.46
#  28    0.02   -0.45    0.02   -0.02   -0.05    0.00    0.00      -0.49   -0.14   -0.30
#  29    0.05   -0.70    0.03   -0.02   -0.15    0.00    0.00      -0.79   -0.10   -0.95
#  30    0.05   -0.68    0.06   -0.03   -0.07    0.00    0.00      -0.68   -0.14   -0.30
#  31    0.06   -2.31    0.74   -0.03   -0.27    0.00    0.00      -1.79   -0.09   -0.95
#  32    0.12   -1.06    0.22   -0.11   -0.11    0.00    0.00      -0.95   -0.44   -0.45
#  33    1.35   -1.06    0.36   -0.10   -0.12    0.00    0.00       0.44   -0.34   -0.39
#  34   -3.75   -1.06    0.25    0.94   -0.17    0.00    0.00      -3.80    2.29   -0.42
#  35    1.80   -1.91    0.27   -0.57   -0.22    0.00    0.00      -0.64   -1.04   -0.40
#  36    1.34   -1.98    0.47   -0.38   -0.24    0.00    0.00      -0.79   -0.73   -0.46
#  37   -0.37   -0.36    0.05    0.43   -0.09    0.00    0.00      -0.34    1.34   -0.28
#  38   -0.25   -0.42    0.18    0.82   -0.08    0.00    0.00       0.25    2.96   -0.28
#  39   -6.38   -0.06    0.01    3.43    0.16    0.00    0.00      -2.85    8.96    0.41
#  40   -1.80   -0.14    0.00    0.30   -0.03    0.00    0.00      -1.67    2.31   -0.20
#  41   -2.78   -0.30    0.03    0.59   -0.08    0.00    0.00      -2.55    2.06   -0.28
#  42   -2.86   -0.13    0.01    0.61   -0.04    0.00    0.00      -2.42    4.47   -0.28
#  43   -4.04   -0.46    0.23    1.35   -0.07    0.00    0.00      -3.00    4.81   -0.25
#  44   -1.51   -0.12    0.01    0.30   -0.02    0.00    0.00      -1.35    2.90   -0.24
#  45   -2.21   -0.08    0.00    0.42   -0.02    0.00    0.00      -1.88    6.20   -0.23
#  46   -2.95   -0.17    0.02    0.86   -0.05    0.00    0.00      -2.29    4.75   -0.26
#  47   -1.67   -0.07    0.00    0.25   -0.02    0.00    0.00      -1.50    4.04   -0.27
#  48   -1.57   -0.09    0.00    0.36   -0.02    0.00    0.00      -1.33    3.88   -0.23
#  49   -3.05   -0.36    0.13    0.84   -0.06    0.00    0.00      -2.50    3.78   -0.28
#  50   -1.05   -0.05    0.00    0.06   -0.01    0.00    0.00      -1.05    1.26   -0.28
#  51   -0.60   -0.03    0.00    0.04   -0.01    0.00    0.00      -0.59    1.38   -0.28
#  52   -0.29   -0.06    0.00    0.12   -0.01    0.00    0.00      -0.25    2.21   -0.28
#  53   -0.83   -0.11    0.01    0.22   -0.03    0.00    0.00      -0.75    1.99   -0.28
#  54   -0.33   -0.08    0.01    0.02   -0.02    0.00    0.00      -0.41    0.21   -0.28
#  55   -0.17   -0.03    0.00    0.01   -0.01    0.00    0.00      -0.19    0.40   -0.28
#  56   -1.59   -0.05    0.00    1.70    0.12    0.00    0.00       0.19    7.86    0.56
#  57   -0.38   -0.35    0.10    1.00   -0.08    0.00    0.00       0.29    3.52   -0.28
#  58   -0.26   -0.52    0.30    0.79   -0.09    0.00    0.00       0.22    2.53   -0.28
#  59   -0.13   -0.11    0.01    0.12   -0.02    0.00    0.00      -0.14    1.19   -0.25
#  60   -0.12   -0.07    0.00    0.07   -0.02    0.00    0.00      -0.14    0.86   -0.28
#  61   -0.24   -0.33    0.11    0.23   -0.06    0.00    0.00      -0.29    1.01   -0.28
#  62   -2.31   -0.17    0.02    0.41   -0.05    0.00    0.00      -2.11    2.48   -0.28
#  63   -4.55   -0.92    1.76    1.94   -0.08    0.00    0.00      -1.86    5.95   -0.26
#  64   -4.84   -0.72    1.09    1.93   -0.11    0.00    0.00      -2.65    4.95   -0.28
#  65   -3.74   -0.35    0.05    0.41   -0.10    0.00    0.00      -3.72    1.03   -0.24
#  66   -2.97   -0.47    0.06    0.57   -0.11    0.00    0.00      -2.93    1.07   -0.21
#  67   -2.41   -0.46    0.12    0.32   -0.13    0.00    0.00      -2.57    0.68   -0.28

@<TRIPOS>MOLECULE
          T368832        94
   67    69     0     0     0



@<TRIPOS>ATOM
      1 Cl1         9.2270   -12.1258    98.0621 Cl         1          -0.0576
      2 C1          8.3428   -10.6457    97.8585 C.ar       1          -0.0440
      3 C2          7.2624   -10.5999    96.9950 C.ar       1          -0.0877
      4 C3          6.5571    -9.4239    96.8317 C.ar       1          -0.1296
      5 C4          6.9329    -8.2868    97.5346 C.ar       1           0.1489
      6 N1          6.2193    -7.0935    97.3711 N.am       1          -0.6775
      7 C5          5.1666    -7.0476    96.5307 C.2        1           0.7016
      8 O1          4.2087    -7.7733    96.7160 O.2        1          -0.5506
      9 N2          5.1755    -6.1973    95.4851 N.am       1          -0.6368
     10 C6          3.8915    -5.6518    95.0002 C.3        1           0.0949
     11 C7          3.8474    -5.6244    93.4615 C.3        1          -0.1570
     12 C8          4.4859    -6.8831    92.9172 C.3        1          -0.0099
     13 N3          5.8980    -6.6274    92.6420 N.4        1          -0.3663
     14 H1          5.9954    -5.6690    92.3418 H          1           0.4170
     15 C9          6.3210    -7.5015    91.5396 C.3        1          -0.0208
     16 C10         5.8723    -6.8962    90.2079 C.3        1          -0.1461
     17 C11         6.3129    -7.8065    89.0599 C.3        1          -0.1154
     18 C12         5.8643    -7.2014    87.7282 C.3        1          -0.1322
     19 C13         6.3049    -8.1118    86.5801 C.3        1           0.1183
     20 N4          5.8753    -7.5322    85.3050 N.am       1          -0.7311
     21 C14         4.6691    -7.8483    84.7935 C.2        1           0.5390
     22 O2          3.9367    -8.6152    85.3908 O.2        1          -0.5215
     23 C15         4.2398    -7.2691    83.5194 C.2        1          -0.2158
     24 C16         2.9292    -7.0572    83.2828 C.2        1          -0.0110
     25 C17         1.9523    -7.1965    84.3744 C.ar       1          -0.0592
     26 C18         0.9181    -8.1333    84.2765 C.ar       1          -0.0282
     27 C19         0.0066    -8.2592    85.3026 C.ar       1          -0.1092
     28 C20         0.1124    -7.4607    86.4298 C.ar       1          -0.0181
     29 Cl2        -1.0399    -7.6267    87.7175 Cl         1          -0.0474
     30 C21         1.1346    -6.5299    86.5343 C.ar       1          -0.0398
     31 Cl3         1.2584    -5.5348    87.9514 Cl         1          -0.0463
     32 C22         2.0570    -6.3971    85.5170 C.ar       1          -0.0783
     33 C23         6.7662    -6.8424    93.7353 C.3        1          -0.0470
     34 C24         6.4443    -5.8466    94.8810 C.3        1           0.1148
     35 C25         8.0173    -8.3355    98.4003 C.ar       1          -0.1089
     36 C26         8.7161    -9.5155    98.5642 C.ar       1          -0.0900
     37 H2          6.9708   -11.4844    96.4483 H          1           0.1424
     38 H3          5.7141    -9.3884    96.1573 H          1           0.1357
     39 H4          6.4825    -6.2997    97.8624 H          1           0.4080
     40 H5          3.0762    -6.2733    95.3704 H          1           0.0924
     41 H6          3.7676    -4.6375    95.3797 H          1           0.0943
     42 H7          2.8110    -5.5694    93.1285 H          1           0.1279
     43 H8          4.3928    -4.7536    93.0978 H          1           0.0944
     44 H9          4.3974    -7.6832    93.6520 H          1           0.1287
     45 H10         3.9830    -7.1772    91.9959 H          1           0.1382
     46 H11         7.4068    -7.5971    91.5478 H          1           0.1345
     47 H12         5.8687    -8.4855    91.6622 H          1           0.1315
     48 H13         4.7866    -6.8007    90.1997 H          1           0.0870
     49 H14         6.3247    -5.9122    90.0854 H          1           0.0894
     50 H15         7.3986    -7.9022    89.0681 H          1           0.0797
     51 H16         5.8605    -8.7907    89.1824 H          1           0.0785
     52 H17         4.7786    -7.1058    87.7200 H          1           0.0739
     53 H18         6.3167    -6.2172    87.6057 H          1           0.0746
     54 H19         7.3906    -8.2073    86.5883 H          1           0.0697
     55 H20         5.8525    -9.0958    86.7028 H          1           0.0694
     56 H21         6.4588    -6.9210    84.8289 H          1           0.4014
     57 H22         4.9726    -7.0117    82.7691 H          1           0.1386
     58 H23         2.5966    -6.7850    82.2920 H          1           0.1464
     59 H24         0.8338    -8.7564    83.3983 H          1           0.1261
     60 H25        -0.7924    -8.9819    85.2275 H          1           0.1398
     61 H26         2.8556    -5.6750    85.6011 H          1           0.1431
     62 H27         6.6440    -7.8631    94.0980 H          1           0.1315
     63 H28         7.7969    -6.6978    93.4117 H          1           0.1465
     64 H29         6.3864    -4.8355    94.4778 H          1           0.1023
     65 H30         7.2293    -5.8901    95.6359 H          1           0.1338
     66 H31         8.3116    -7.4525    98.9482 H          1           0.1491
     67 H32         9.5570    -9.5551    99.2407 H          1           0.1401
@<TRIPOS>BOND
     1    1    2 1
     2    2   36 ar
     3    2    3 ar
     4    3    4 ar
     5    3   37 1
     6    4    5 ar
     7    4   38 1
     8    5    6 1
     9    5   35 ar
    10    6    7 am
    11    6   39 1
    12    7    8 2
    13    7    9 am
    14    9   34 1
    15    9   10 1
    16   10   11 1
    17   10   40 1
    18   10   41 1
    19   11   12 1
    20   11   42 1
    21   11   43 1
    22   12   13 1
    23   12   44 1
    24   12   45 1
    25   13   14 1
    26   13   15 1
    27   13   33 1
    28   15   16 1
    29   15   46 1
    30   15   47 1
    31   16   17 1
    32   16   48 1
    33   16   49 1
    34   17   18 1
    35   17   50 1
    36   17   51 1
    37   18   19 1
    38   18   52 1
    39   18   53 1
    40   19   20 1
    41   19   54 1
    42   19   55 1
    43   20   21 am
    44   20   56 1
    45   21   22 2
    46   21   23 1
    47   23   24 2
    48   23   57 1
    49   24   25 1
    50   24   58 1
    51   25   32 ar
    52   25   26 ar
    53   26   27 ar
    54   26   59 1
    55   27   28 ar
    56   27   60 1
    57   28   29 1
    58   28   30 ar
    59   30   31 1
    60   30   32 ar
    61   32   61 1
    62   33   34 1
    63   33   62 1
    64   33   63 1
    65   34   64 1
    66   34   65 1
    67   35   36 ar
    68   35   66 1
    69   36   67 1
##########                 Name:              T524467
##########          Protonation:                   24
##########               SMILES:   [H]/N=C/1\[NH+]=C(NC(N1OCCCOc2cccc3c2cccc3)(C)C)N
##########            Long Name:   ino-6,6-dimethyl-5-[3-(1-naphthyloxy)propoxy]-1H-1,3,5-triazin-3-ium-2-amine
##########          FlexRecCode: 1
##########               Number:                  291
##########   Ligand Source File: /raidb/db2/rgc/tcams/tcams-0000012.db2.gz
##########           GlobalRank: 289
##########                 Rank:                    1
##########               Setnum:                  289
##########             Matchnum:                 4732
##########                Cloud:                    1
##########        Electrostatic:           -48.035973
##########        Van der Waals:           -29.419270
##########  Ligand Polar Desolv:            15.883107
########## Ligand Apolar Desolv:            -3.651227
##########      Internal Energy:             0.000000
##########      Receptor Energy: 0.0
########## Receptor Desolvation:             0.000000
########## Receptor Hydrophobic:             0.000000
##########         Total Energy: -65.22
##########        Ligand Charge:             1.000000
##########            Arbitrary:    +999.9990
##########     heavy atom count:   25
##########           pose count:    1
##########        Ligand Energy:             0.000000
# num electro vdwattr vdwrepu polsolv apolsol rdesolv rhydroe totalscore fullpol fullapo
#   1    4.05   -0.65    0.04   -1.30   -0.05    0.00    0.00       2.09   -3.82   -0.16
#   2   -9.90   -0.76    0.05    3.62   -0.15    0.00    0.00      -7.14    9.23   -0.38
#   3    4.91   -1.53    0.35   -1.83   -0.09    0.00    0.00       1.82   -3.60   -0.18
#   4   20.19   -2.36    0.67   -8.82    0.71    0.00    0.00      10.39  -18.63    1.50
#   5  -26.82   -1.97    0.34    9.59   -2.13    0.00    0.00     -20.99   21.17   -4.71
#   6   36.03   -4.93    2.56  -13.19    0.53    0.00    0.00      21.00  -23.22    0.94
#   7   21.44   -1.35    0.31   -5.15    0.34    0.00    0.00      15.60  -15.45    1.02
#   8  -20.74   -0.05    0.00    3.23    0.14    0.00    0.00     -17.42   13.38    0.57
#   9  -11.91   -0.64    0.03    2.62   -1.05    0.00    0.00     -10.95   11.55   -4.61
#  10    8.27   -0.63    0.05   -2.23    0.29    0.00    0.00       5.75  -11.35    1.46
#  11    8.30   -0.78    0.03   -2.63    0.26    0.00    0.00       5.18   -8.93    0.88
#  12    0.45   -1.59    0.71   -0.71    0.16    0.00    0.00      -0.98   -1.88    0.43
#  13   -0.05   -1.96    1.66    0.28   -0.05    0.00    0.00      -0.13    0.70   -0.12
#  14    1.65   -1.08    0.14   -0.53   -0.11    0.00    0.00       0.08   -1.24   -0.25
#  15   -0.90   -1.26    0.23    0.29   -0.04    0.00    0.00      -1.69    0.60   -0.09
#  16    3.93   -1.00    0.06   -0.82    0.33    0.00    0.00       2.50   -2.04    0.82
#  17   -1.67   -1.47    0.19    0.22   -0.13    0.00    0.00      -2.85    0.53   -0.31
#  18    0.60   -1.24    0.13   -0.11   -0.15    0.00    0.00      -0.76   -0.31   -0.40
#  19    0.63   -1.19    0.21   -0.09   -0.14    0.00    0.00      -0.58   -0.29   -0.45
#  20    0.89   -1.05    0.13   -0.15   -0.15    0.00    0.00      -0.32   -0.49   -0.47
#  21    1.09   -1.41    0.22   -0.18   -0.19    0.00    0.00      -0.46   -0.45   -0.47
#  22    1.10   -1.55    0.17   -0.23   -0.23    0.00    0.00      -0.74   -0.46   -0.46
#  23    0.18   -1.27    0.09   -0.09   -0.19    0.00    0.00      -1.29   -0.19   -0.40
#  24    1.34   -1.93    0.46   -0.45   -0.25    0.00    0.00      -0.83   -0.82   -0.46
#  25    1.19   -2.75    1.46   -0.31   -0.26    0.00    0.00      -0.67   -0.56   -0.47
#  26    3.45   -2.28    0.86   -0.86   -0.23    0.00    0.00       0.94   -1.58   -0.42
#  27   -2.83   -0.30    0.04    0.34   -0.08    0.00    0.00      -2.82    1.19   -0.27
#  28   -2.07   -0.16    0.01    0.55   -0.05    0.00    0.00      -1.71    3.36   -0.28
#  29   -1.88   -0.17    0.01    0.35   -0.04    0.00    0.00      -1.72    1.99   -0.22
#  30   -2.63   -0.56    0.20    0.43   -0.14    0.00    0.00      -2.69    0.89   -0.28
#  31   -2.08   -0.74    0.31    0.71   -0.15    0.00    0.00      -1.94    1.31   -0.27
#  32   -3.25   -0.61    0.52    1.36   -0.12    0.00    0.00      -2.11    3.05   -0.28
#  33  -13.10   -0.10    0.01    6.44    0.26    0.00    0.00      -6.50   14.56    0.58
#  34  -18.21   -0.13    0.01    9.85    0.38    0.00    0.00      -8.09   15.47    0.59
#  35  -27.85   -0.17    0.03    8.95    0.35    0.00    0.00     -18.70   15.19    0.59
#  36   -6.26   -0.01    0.00    0.49    0.05    0.00    0.00      -5.73    6.01    0.58
#  37    0.23   -1.71    3.63    1.02   -0.10    0.00    0.00       3.08    2.23   -0.21
#  38    0.02   -0.63    0.95    0.25   -0.07    0.00    0.00       0.51    0.94   -0.28
#  39   -1.89   -0.22    0.02    0.07   -0.06    0.00    0.00      -2.07    0.36   -0.28
#  40   -1.61   -0.48    0.11    0.39   -0.12    0.00    0.00      -1.71    0.93   -0.28
#  41   -0.99   -0.65    0.73    0.65   -0.11    0.00    0.00      -0.37    1.49   -0.26
#  42   -0.74   -0.78    0.64    0.47   -0.12    0.00    0.00      -0.54    1.03   -0.26
#  43   -0.99   -0.19    0.02    0.07   -0.05    0.00    0.00      -1.13    0.44   -0.27
#  44   -0.81   -0.14    0.01    0.11   -0.04    0.00    0.00      -0.87    0.83   -0.28
#  45   -2.00   -0.52    0.35    0.27   -0.08    0.00    0.00      -1.98    0.93   -0.28
#  46   -1.06   -0.52    0.12    0.39   -0.13    0.00    0.00      -1.20    0.87   -0.28
#  47   -0.85   -0.56    0.28    0.51   -0.15    0.00    0.00      -0.76    0.98   -0.28
#  48   -2.50   -0.94    0.76    0.94   -0.16    0.00    0.00      -1.89    1.68   -0.28
#  49   -2.41   -0.50    0.10    1.08   -0.11    0.00    0.00      -1.84    2.07   -0.22

@<TRIPOS>MOLECULE
          T524467        24
   49    51     0     0     0



@<TRIPOS>ATOM
      1 C1          1.1170    -5.1826    94.3497 C.3        1          -0.1736
      2 C2          2.1818    -5.4068    95.4253 C.3        1           0.4065
      3 C3          1.5278    -5.5480    96.8011 C.3        1          -0.1717
      4 N1          3.1512    -4.2989    95.4270 N.pl3      1          -0.6980
      5 C4          4.0503    -4.2193    94.3956 C.cat      1           0.7437
      6 N2          4.5749    -3.0082    94.0401 N.pl3      1          -0.7848
      7 N3          4.4106    -5.3085    93.7462 N.pl3      1          -0.6211
      8 H1          5.0527    -5.2434    93.0220 H          1           0.4496
      9 C5          3.8991    -6.5120    94.0753 C.2        1           0.5897
     10 N4          4.2637    -7.5866    93.4206 N.2        1          -0.6584
     11 N5          2.9843    -6.6020    95.1126 N.pl3      1          -0.4880
     12 O1          2.8264    -7.8022    95.8472 O.3        1          -0.0680
     13 C6          4.0142    -8.2377    96.5118 C.3        1           0.0194
     14 C7          4.7425    -7.0274    97.0999 C.3        1          -0.1145
     15 C8          6.0141    -7.4936    97.8114 C.3        1           0.0668
     16 O2          6.8681    -8.1550    96.8759 O.3        1          -0.3061
     17 C9          7.6729    -9.1351    97.3618 C.ar       1           0.1445
     18 C10         8.0465   -10.2188    96.5408 C.ar       1          -0.0695
     19 C11         7.6026   -10.3142    95.2121 C.ar       1          -0.0883
     20 C12         7.9841   -11.3749    94.4488 C.ar       1          -0.1235
     21 C13         8.8104   -12.3707    94.9663 C.ar       1          -0.1003
     22 C14         9.2593   -12.3113    96.2498 C.ar       1          -0.1150
     23 C15         8.8867   -11.2307    97.0675 C.ar       1          -0.0197
     24 C16         9.3317   -11.1346    98.3973 C.ar       1          -0.1376
     25 C17         8.9523   -10.0744    99.1622 C.ar       1          -0.0806
     26 C18         8.1305    -9.0750    98.6478 C.ar       1          -0.2220
     27 H2          0.5330    -4.2958    94.5959 H          1           0.1124
     28 H3          1.6008    -5.0424    93.3831 H          1           0.1015
     29 H4          0.4585    -6.0500    94.3039 H          1           0.0813
     30 H5          2.2986    -5.7069    97.5553 H          1           0.1076
     31 H6          0.9730    -4.6392    97.0346 H          1           0.0659
     32 H7          0.8458    -6.3982    96.7937 H          1           0.0982
     33 H8          3.1538    -3.6419    96.1406 H          1           0.4476
     34 H9          4.3106    -2.2062    94.5176 H          1           0.4450
     35 H10         5.2112    -2.9507    93.3103 H          1           0.4419
     36 H11         4.9045    -7.5186    92.6955 H          1           0.3659
     37 H12         3.7500    -8.9275    97.3132 H          1           0.0685
     38 H13         4.6655    -8.7421    95.7980 H          1           0.0662
     39 H14         5.0066    -6.3375    96.2984 H          1           0.0944
     40 H15         4.0909    -6.5229    97.8136 H          1           0.0930
     41 H16         6.5329    -6.6314    98.2305 H          1           0.0666
     42 H17         5.7498    -8.1835    98.6130 H          1           0.0664
     43 H18         6.9616    -9.5500    94.7979 H          1           0.1311
     44 H19         7.6409   -11.4460    93.4272 H          1           0.1269
     45 H20         9.0983   -13.2018    94.3397 H          1           0.1277
     46 H21         9.8986   -13.0905    96.6378 H          1           0.1324
     47 H22         9.9723   -11.8995    98.8108 H          1           0.1309
     48 H23         9.2969   -10.0056   100.1835 H          1           0.1257
     49 H24         7.8480    -8.2425    99.2751 H          1           0.1235
@<TRIPOS>BOND
     1    1    2 1
     2    1   27 1
     3    1   28 1
     4    1   29 1
     5    2   11 1
     6    2    3 1
     7    2    4 1
     8    3   30 1
     9    3   31 1
    10    3   32 1
    11    4    5 1
    12    4   33 1
    13    5    6 1
    14    5    7 2
    15    6   34 1
    16    6   35 1
    17    7    8 1
    18    7    9 1
    19    9   10 2
    20    9   11 1
    21   10   36 1
    22   11   12 1
    23   12   13 1
    24   13   14 1
    25   13   37 1
    26   13   38 1
    27   14   15 1
    28   14   39 1
    29   14   40 1
    30   15   16 1
    31   15   41 1
    32   15   42 1
    33   16   17 1
    34   17   26 ar
    35   17   18 ar
    36   18   23 ar
    37   18   19 ar
    38   19   20 ar
    39   19   43 1
    40   20   21 ar
    41   20   44 1
    42   21   22 ar
    43   21   45 1
    44   22   23 ar
    45   22   46 1
    46   23   24 ar
    47   24   25 ar
    48   24   47 1
    49   25   26 ar
    50   25   48 1
    51   26   49 1
##########                 Name:              T526184
##########          Protonation:                   27
##########               SMILES:   c2c(nccc2[C@H](O)C[NH+]3CC[C@@H](CC3)[NH2+]Cc4[nH]c5c(cccc5c4)OCc6ccccc6)cc1
##########            Long Name:   -[(2S)-2-hydroxy-2-(6-methoxy-4-quinolyl)ethyl]piperidin-1-ium-4-yl]ammonium
##########          FlexRecCode: 1
##########               Number:                   64
##########   Ligand Source File: /raidb/db2/rgc/tcams/tcams-0000187.db2.gz
##########           GlobalRank: 291
##########                 Rank:                    1
##########               Setnum:                  292
##########             Matchnum:                 2342
##########                Cloud:                    1
##########        Electrostatic:           -23.182648
##########        Van der Waals:           -37.582619
##########  Ligand Polar Desolv:            -0.673795
########## Ligand Apolar Desolv:            -3.757527
##########      Internal Energy:             0.000000
##########      Receptor Energy: 0.0
########## Receptor Desolvation:             0.000000
########## Receptor Hydrophobic:             0.000000
##########         Total Energy: -65.2
##########        Ligand Charge:             2.000000
##########            Arbitrary:    +999.9990
##########     heavy atom count:   40
##########           pose count:    1
##########        Ligand Energy:             0.000000
# num electro vdwattr vdwrepu polsolv apolsol rdesolv rhydroe totalscore fullpol fullapo
#   1   -0.02   -0.21    0.01    0.03    0.00    0.00    0.00      -0.19    0.24    0.03
#   2    0.34   -0.21    0.01   -0.69    0.09    0.00    0.00      -0.46   -6.78    0.93
#   3   -0.24   -0.51    0.05    0.28   -0.05    0.00    0.00      -0.46    1.87   -0.31
#   4    0.27   -1.48    0.77   -0.83   -0.12    0.00    0.00      -1.39   -2.99   -0.43
#   5    0.06   -2.15    0.86   -0.81   -0.19    0.00    0.00      -2.23   -1.96   -0.46
#   6   -0.25   -1.37    0.16    0.13   -0.30    0.00    0.00      -1.63    0.31   -0.73
#   7    1.48   -2.42    0.71   -3.87    0.98    0.00    0.00      -3.12   -7.90    2.00
#   8   -0.53   -2.92    2.26    0.68   -0.45    0.00    0.00      -0.97    1.47   -0.97
#   9    0.54   -1.62    0.41   -1.46   -0.16    0.00    0.00      -2.29   -4.06   -0.44
#  10    0.35   -0.83    0.08   -0.26   -0.09    0.00    0.00      -0.75   -1.03   -0.35
#  11   -0.44   -0.31    0.01    0.96   -0.02    0.00    0.00       0.21    5.67   -0.11
#  12    4.84   -0.95    0.18   -5.66    0.41    0.00    0.00      -1.18  -21.82    1.58
#  13    0.23   -0.18    0.01   -0.11   -0.04    0.00    0.00      -0.09   -1.00   -0.32
#  14    3.59   -0.17    0.00   -1.48    0.02    0.00    0.00       1.96  -18.29    0.27
#  15   -6.61    0.00    0.00    1.41    0.03    0.00    0.00      -5.17   23.72    0.49
#  16    0.02   -0.11    0.00   -0.02   -0.03    0.00    0.00      -0.13   -0.23   -0.38
#  17    1.55   -0.18    0.01   -0.96   -0.03    0.00    0.00       0.39   -8.94   -0.24
#  18   -0.10   -0.17    0.01    0.26   -0.03    0.00    0.00      -0.03    2.34   -0.23
#  19    1.51   -0.16    0.00   -0.98   -0.02    0.00    0.00       0.35   -9.66   -0.20
#  20    0.07   -0.09    0.00   -0.10   -0.02    0.00    0.00      -0.14   -1.65   -0.37
#  21    4.31   -0.58    0.15   -4.61    0.11    0.00    0.00      -0.61  -26.55    0.63
#  22   -3.48   -0.02    0.00    3.49    0.08    0.00    0.00       0.06   25.19    0.56
#  23   -5.17   -0.01    0.00    3.58    0.08    0.00    0.00      -1.52   24.50    0.56
#  24   -0.35   -0.50    0.07    0.99   -0.09    0.00    0.00       0.12    4.54   -0.43
#  25    0.15   -1.04    0.14    1.17   -0.21    0.00    0.00       0.21    4.06   -0.71
#  26    1.01   -1.40    0.21   -2.47   -0.19    0.00    0.00      -2.83   -6.56   -0.51
#  27    0.70   -1.25    0.09   -1.19   -0.21    0.00    0.00      -1.86   -2.54   -0.44
#  28    0.81   -1.81    0.20   -1.38   -0.27    0.00    0.00      -2.45   -2.40   -0.47
#  29    0.63   -2.24    0.49   -1.35   -0.28    0.00    0.00      -2.73   -2.29   -0.47
#  30    1.89   -2.07    0.75   -1.91   -0.22    0.00    0.00      -1.56   -3.60   -0.42
#  31   -1.34   -1.43    0.18    0.64   -0.13    0.00    0.00      -2.08    1.49   -0.31
#  32    4.76   -1.46    0.23   -2.54    0.43    0.00    0.00       1.43   -5.21    0.89
#  33   -1.51   -1.14    0.14    0.86   -0.05    0.00    0.00      -1.70    1.68   -0.10
#  34    1.75   -1.44    0.24   -0.65   -0.17    0.00    0.00      -0.26   -1.51   -0.39
#  35    1.53   -1.39    0.17   -0.65   -0.18    0.00    0.00      -0.52   -1.61   -0.45
#  36    2.71   -1.11    0.09   -0.71   -0.17    0.00    0.00       0.81   -2.01   -0.47
#  37    3.41   -1.47    0.28   -0.80   -0.20    0.00    0.00       1.22   -1.87   -0.47
#  38    4.08   -2.11    0.59   -0.90   -0.22    0.00    0.00       1.44   -1.97   -0.47
#  39    2.19   -2.11    0.62   -0.73   -0.20    0.00    0.00      -0.23   -1.65   -0.45
#  40   -0.84   -1.19    0.13    0.31   -0.28    0.00    0.00      -1.87    0.87   -0.78
#  41    4.62   -1.30    0.34   -5.19    0.33    0.00    0.00      -1.19  -17.52    1.12
#  42    0.11   -0.72    0.04   -0.46   -0.11    0.00    0.00      -1.13   -1.72   -0.40
#  43    0.34   -0.38    0.01   -0.40   -0.06    0.00    0.00      -0.49   -2.63   -0.43
#  44   -0.08   -0.03    0.00    0.09   -0.01    0.00    0.00      -0.03    2.99   -0.28
#  45   -0.06   -0.14    0.02    0.10   -0.04    0.00    0.00      -0.12    0.75   -0.27
#  46   -0.05   -0.05    0.00    0.05   -0.01    0.00    0.00      -0.06    1.18   -0.27
#  47   -0.19   -0.31    0.11    0.44   -0.05    0.00    0.00       0.01    2.02   -0.22
#  48   -0.29   -0.82    0.54    0.25   -0.13    0.00    0.00      -0.45    0.55   -0.28
#  49   -1.00   -0.80    1.09    1.25   -0.12    0.00    0.00       0.42    2.84   -0.28
#  50   -1.06   -0.29    0.04    1.84   -0.06    0.00    0.00       0.47    7.30   -0.22
#  51   -0.37   -0.06    0.00    0.40   -0.01    0.00    0.00      -0.04    6.91   -0.18
#  52   -6.48   -0.02    0.00    3.32    0.20    0.00    0.00      -2.98   16.97    1.00
#  53   -0.38   -0.03    0.00    0.28   -0.01    0.00    0.00      -0.15    7.65   -0.28
#  54   -0.74   -0.10    0.01    0.77   -0.03    0.00    0.00      -0.09    7.88   -0.28
#  55   -0.59   -0.02    0.00    0.22   -0.01    0.00    0.00      -0.39    8.61   -0.28
#  56   -1.15   -0.04    0.00    0.31   -0.01    0.00    0.00      -0.89    7.22   -0.28
#  57   -0.88   -0.05    0.00    0.39   -0.02    0.00    0.00      -0.55    7.26   -0.28
#  58   -1.62   -0.10    0.01    0.73   -0.03    0.00    0.00      -1.01    7.05   -0.28
#  59   -0.71   -0.03    0.00    0.36   -0.01    0.00    0.00      -0.39   11.94   -0.28
#  60   -0.61   -0.07    0.01    0.54   -0.02    0.00    0.00      -0.15    7.80   -0.22
#  61   -1.80   -0.07    0.00    0.45   -0.02    0.00    0.00      -1.43    7.21   -0.28
#  62   -0.96   -0.03    0.00    0.21   -0.01    0.00    0.00      -0.78    6.27   -0.22
#  63   -0.46   -0.02    0.00    0.23   -0.01    0.00    0.00      -0.25    9.39   -0.28
#  64   -0.16   -0.29    0.17    1.58   -0.03    0.00    0.00       1.26   10.13   -0.21
#  65   -0.86   -0.11    0.01    1.10   -0.03    0.00    0.00       0.11   11.36   -0.28
#  66   -2.41   -0.48    0.23    2.24   -0.09    0.00    0.00      -0.51    7.05   -0.28
#  67   -1.33   -0.51    0.11    1.26   -0.15    0.00    0.00      -0.62    2.34   -0.28
#  68   -0.60   -0.66    0.19    0.72   -0.16    0.00    0.00      -0.52    1.22   -0.28
#  69   -2.17   -0.54    0.20    0.61   -0.10    0.00    0.00      -2.00    1.32   -0.22
#  70   -0.76   -0.58    0.28    0.31   -0.09    0.00    0.00      -0.84    0.90   -0.26
#  71   -1.30   -0.45    0.07    0.61   -0.14    0.00    0.00      -1.21    1.21   -0.27
#  72   -1.40   -0.39    0.07    0.95   -0.10    0.00    0.00      -0.87    2.56   -0.28
#  73   -2.77   -0.17    0.01    0.39   -0.04    0.00    0.00      -2.59    2.43   -0.28
#  74   -5.47   -0.43    0.24    0.65   -0.09    0.00    0.00      -5.11    2.04   -0.28
#  75   -5.89   -0.88    0.87    1.02   -0.14    0.00    0.00      -5.02    1.99   -0.28
#  76   -2.82   -1.08    1.34    0.86   -0.12    0.00    0.00      -1.81    1.96   -0.28
#  77   -4.55   -0.02    0.00    2.83    0.11    0.00    0.00      -1.63   15.19    0.59
#  78   -0.21   -0.04    0.00    0.35   -0.01    0.00    0.00       0.09    9.15   -0.22

@<TRIPOS>MOLECULE
          T526184        27
   78    83     0     0     0



@<TRIPOS>ATOM
      1 C1          0.5175    -9.5459    83.5168 C.3        1           0.0187
      2 O1          1.4417    -9.1173    84.5188 O.3        1          -0.3159
      3 C2          2.3182    -8.1385    84.1716 C.ar       1           0.1640
      4 C3          2.2773    -7.5998    82.8818 C.ar       1          -0.1770
      5 C4          3.1409    -6.6196    82.5043 C.ar       1          -0.0291
      6 C5          4.0924    -6.1352    83.4198 C.ar       1           0.0984
      7 N1          4.9525    -5.1718    83.0742 N.ar       1          -0.4351
      8 C6          5.8416    -4.7153    83.9222 C.ar       1           0.1194
      9 C7          5.9360    -5.2083    85.2220 C.ar       1          -0.1274
     10 C8          5.0876    -6.1933    85.6406 C.ar       1          -0.1067
     11 C9          5.1696    -6.7425    87.0415 C.3        1           0.1377
     12 O2          5.6397    -5.7233    87.9258 O.3        1          -0.5446
     13 C10         6.1371    -7.9275    87.0689 C.3        1          -0.0466
     14 N2          6.5894    -8.1586    88.4473 N.4        1          -0.3847
     15 H1          6.7526    -7.2716    88.8997 H          1           0.4309
     16 C11         7.8359    -8.9333    88.4282 C.3        1          -0.0025
     17 C12         8.3547    -9.1072    89.8572 C.3        1          -0.1699
     18 C13         7.3040    -9.8485    90.6891 C.3        1           0.0131
     19 C14         5.9864    -9.0693    90.6407 C.3        1          -0.1715
     20 C15         5.5563    -8.8982    89.1822 C.3        1          -0.0112
     21 N3          7.7627    -9.9518    92.0808 N.4        1          -0.5088
     22 H2          8.7516   -10.1513    92.0950 H          1           0.4410
     23 H3          7.5885    -9.0800    92.5580 H          1           0.4288
     24 C16         7.0351   -11.0341    92.7570 C.3        1           0.0694
     25 C17         7.5057   -11.1401    94.1849 C.2        1          -0.0257
     26 C18         7.8065   -12.2874    94.8142 C.2        1          -0.1184
     27 C19         8.2167   -11.9348    96.1753 C.ar       1          -0.0886
     28 C20         8.6379   -12.6739    97.2844 C.ar       1          -0.1016
     29 C21         8.9594   -12.0327    98.4468 C.ar       1          -0.0886
     30 C22         8.8716   -10.6502    98.5382 C.ar       1          -0.1726
     31 C23         8.4573    -9.8986    97.4551 C.ar       1           0.1207
     32 O3          8.3745    -8.5452    97.5545 O.3        1          -0.3173
     33 C24         7.1276    -8.0019    97.9929 C.3        1           0.1047
     34 C25         6.5734    -7.0926    96.9267 C.ar       1          -0.1058
     35 C26         5.2062    -6.9378    96.7924 C.ar       1          -0.0970
     36 C27         4.6978    -6.1037    95.8143 C.ar       1          -0.1222
     37 C28         5.5565    -5.4239    94.9708 C.ar       1          -0.1033
     38 C29         6.9236    -5.5779    95.1057 C.ar       1          -0.1205
     39 C30         7.4321    -6.4088    96.0865 C.ar       1          -0.0953
     40 C31         8.1249   -10.5353    96.2585 C.ar       1           0.1012
     41 N4          7.6954   -10.0818    95.0299 N.pl3      1          -0.5808
     42 C32         4.1338    -6.6811    84.7268 C.ar       1          -0.0436
     43 C33         3.2255    -7.6881    85.0881 C.ar       1          -0.1877
     44 H4         -0.1227   -10.3284    83.9239 H          1           0.1105
     45 H5         -0.0960    -8.7013    83.2032 H          1           0.0658
     46 H6          1.0660    -9.9349    82.6590 H          1           0.0647
     47 H7          1.5490    -7.9681    82.1745 H          1           0.1479
     48 H8          3.0964    -6.2144    81.5042 H          1           0.1522
     49 H9          6.5193    -3.9365    83.6049 H          1           0.1713
     50 H10         6.6795    -4.8121    85.8978 H          1           0.1414
     51 H11         4.1812    -7.0730    87.3606 H          1           0.1356
     52 H12         6.5160    -5.3815    87.7017 H          1           0.3928
     53 H13         5.6306    -8.8188    86.6984 H          1           0.1505
     54 H14         6.9972    -7.7090    86.4360 H          1           0.1470
     55 H15         7.6479    -9.9128    87.9886 H          1           0.1444
     56 H16         8.5818    -8.4061    87.8332 H          1           0.1528
     57 H17         9.2793    -9.6843    89.8412 H          1           0.1405
     58 H18         8.5434    -8.1283    90.2978 H          1           0.1133
     59 H19         7.1522   -10.8468    90.2790 H          1           0.1615
     60 H20         5.2183    -9.6189    91.1847 H          1           0.1381
     61 H21         6.1260    -8.0895    91.0976 H          1           0.1147
     62 H22         4.6177    -8.3451    89.1441 H          1           0.1518
     63 H23         5.4180    -9.8784    88.7260 H          1           0.1464
     64 H24         5.9667   -10.8185    92.7419 H          1           0.1406
     65 H25         7.2232   -11.9758    92.2415 H          1           0.1605
     66 H26         7.7553   -13.2818    94.3959 H          1           0.1612
     67 H27         8.7088   -13.7498    97.2224 H          1           0.1342
     68 H28         9.2842   -12.6061    99.3023 H          1           0.1384
     69 H29         9.1293   -10.1578    99.4642 H          1           0.1417
     70 H30         6.4239    -8.8129    98.1805 H          1           0.0778
     71 H31         7.2811    -7.4345    98.9106 H          1           0.0771
     72 H32         4.5354    -7.4689    97.4514 H          1           0.1229
     73 H33         3.6297    -5.9834    95.7090 H          1           0.1280
     74 H34         5.1592    -4.7728    94.2063 H          1           0.1287
     75 H35         7.5944    -5.0471    94.4464 H          1           0.1291
     76 H36         8.5003    -6.5262    96.1943 H          1           0.1245
     77 H37         7.5471    -9.1511    94.7999 H          1           0.4193
     78 H38         3.2463    -8.1073    86.0833 H          1           0.1251
@<TRIPOS>BOND
     1    1    2 1
     2    1   44 1
     3    1   45 1
     4    1   46 1
     5    2    3 1
     6    3   43 ar
     7    3    4 ar
     8    4    5 ar
     9    4   47 1
    10    5    6 ar
    11    5   48 1
    12    6   42 ar
    13    6    7 ar
    14    7    8 ar
    15    8    9 ar
    16    8   49 1
    17    9   10 ar
    18    9   50 1
    19   10   11 1
    20   10   42 ar
    21   11   12 1
    22   11   13 1
    23   11   51 1
    24   12   52 1
    25   13   14 1
    26   13   53 1
    27   13   54 1
    28   14   15 1
    29   14   20 1
    30   14   16 1
    31   16   17 1
    32   16   55 1
    33   16   56 1
    34   17   18 1
    35   17   57 1
    36   17   58 1
    37   18   19 1
    38   18   21 1
    39   18   59 1
    40   19   20 1
    41   19   60 1
    42   19   61 1
    43   20   62 1
    44   20   63 1
    45   21   22 1
    46   21   23 1
    47   21   24 1
    48   24   25 1
    49   24   64 1
    50   24   65 1
    51   25   41 1
    52   25   26 2
    53   26   27 1
    54   26   66 1
    55   27   40 ar
    56   27   28 ar
    57   28   29 ar
    58   28   67 1
    59   29   30 ar
    60   29   68 1
    61   30   31 ar
    62   30   69 1
    63   31   32 1
    64   31   40 ar
    65   32   33 1
    66   33   34 1
    67   33   70 1
    68   33   71 1
    69   34   39 ar
    70   34   35 ar
    71   35   36 ar
    72   35   72 1
    73   36   37 ar
    74   36   73 1
    75   37   38 ar
    76   37   74 1
    77   38   39 ar
    78   38   75 1
    79   39   76 1
    80   40   41 1
    81   41   77 1
    82   42   43 ar
    83   43   78 1
##########                 Name:              T529342
##########          Protonation:                   13
##########               SMILES:   CC1(NC(=[NH2+])NC(=[NH2+])N1OCCCCCOc2ccccc2)C
##########            Long Name:   ylidene-6,6-dimethyl-1-(5-phenoxypentoxy)-1,3,5-triazinan-2-ylidene]ammonium
##########          FlexRecCode: 1
##########               Number:                   55
##########   Ligand Source File: /raidb/db2/rgc/tcams/tcams-0000523.db2.gz
##########           GlobalRank: 291
##########                 Rank:                    1
##########               Setnum:                  216
##########             Matchnum:                 1104
##########                Cloud:                    1
##########        Electrostatic:           -55.345421
##########        Van der Waals:           -22.213404
##########  Ligand Polar Desolv:            15.303388
########## Ligand Apolar Desolv:            -2.941433
##########      Internal Energy:             0.000000
##########      Receptor Energy: 0.0
########## Receptor Desolvation:             0.000000
########## Receptor Hydrophobic:             0.000000
##########         Total Energy: -65.2
##########        Ligand Charge:             2.000000
##########            Arbitrary:    +999.9990
##########     heavy atom count:   23
##########           pose count:    1
##########        Ligand Energy:             0.000000
# num electro vdwattr vdwrepu polsolv apolsol rdesolv rhydroe totalscore fullpol fullapo
#   1    1.26   -0.16    0.01   -0.79   -0.02    0.00    0.00       0.30   -7.95   -0.18
#   2   -2.69   -0.15    0.00    1.66   -0.04    0.00    0.00      -1.21   17.65   -0.38
#   3    0.24   -0.14    0.00   -0.57   -0.01    0.00    0.00      -0.48   -6.61   -0.16
#   4    5.02   -0.30    0.01   -4.37    0.21    0.00    0.00       0.57  -31.92    1.52
#   5  -12.38   -0.87    0.10    9.17   -1.12    0.00    0.00      -5.10   37.16   -4.53
#   6    9.24   -1.24    0.26   -8.49    0.24    0.00    0.00       0.01  -31.24    0.89
#   7   -3.36   -0.01    0.00    2.59    0.07    0.00    0.00      -0.71   23.49    0.60
#   8  -14.66   -0.04    0.00    7.08    0.17    0.00    0.00      -7.45   24.36    0.60
#   9   21.00   -2.02    0.84   -9.83    0.36    0.00    0.00      10.35  -30.98    1.15
#  10  -19.31   -0.89    0.14    8.27   -1.02    0.00    0.00     -12.81   35.34   -4.37
#  11   22.26   -1.32    0.47   -7.88    0.23    0.00    0.00      13.76  -30.43    0.89
#  12  -23.19   -0.07    0.01    6.32    0.16    0.00    0.00     -16.77   23.90    0.60
#  13  -11.09   -0.01    0.00    2.49    0.05    0.00    0.00      -8.56   21.20    0.45
#  14    5.71   -0.37    0.01   -3.21    0.13    0.00    0.00       2.28  -20.94    0.87
#  15    0.53   -0.36    0.01   -0.64    0.07    0.00    0.00      -0.40   -4.11    0.43
#  16   -0.02   -0.31    0.01    0.09   -0.02    0.00    0.00      -0.26    0.48   -0.13
#  17    1.94   -0.53    0.03   -1.00   -0.07    0.00    0.00       0.37   -3.50   -0.24
#  18    2.19   -0.62    0.04   -0.96   -0.08    0.00    0.00       0.57   -2.69   -0.22
#  19    2.92   -0.69    0.04   -0.90   -0.09    0.00    0.00       1.28   -2.46   -0.24
#  20   -1.48   -1.21    0.22    0.23   -0.04    0.00    0.00      -2.29    0.52   -0.09
#  21    6.29   -0.94    0.06   -1.53    0.33    0.00    0.00       4.21   -4.08    0.89
#  22   -2.95   -1.57    0.38    0.43   -0.13    0.00    0.00      -3.84    1.03   -0.31
#  23    4.07   -1.51    0.36   -1.09   -0.18    0.00    0.00       1.65   -2.53   -0.42
#  24    1.84   -2.78    1.28   -0.53   -0.23    0.00    0.00      -0.42   -1.10   -0.47
#  25    4.79   -3.87    1.88   -1.06   -0.27    0.00    0.00       1.47   -1.85   -0.47
#  26    3.04   -3.91    1.73   -0.55   -0.28    0.00    0.00       0.03   -0.94   -0.47
#  27    5.23   -2.53    0.89   -0.88   -0.24    0.00    0.00       2.47   -1.72   -0.46
#  28   -0.44   -0.03    0.00    0.10   -0.01    0.00    0.00      -0.37    3.27   -0.27
#  29   -1.61   -0.05    0.00    0.19   -0.01    0.00    0.00      -1.48    4.11   -0.28
#  30   -0.20   -0.10    0.02    0.48   -0.03    0.00    0.00       0.17    4.99   -0.26
#  31   -0.17   -0.03    0.00    0.09   -0.01    0.00    0.00      -0.12    2.47   -0.27
#  32   -0.07   -0.02    0.00    0.06   -0.01    0.00    0.00      -0.04    2.12   -0.28
#  33   -0.05   -0.08    0.01    0.32   -0.02    0.00    0.00       0.17    3.86   -0.28
#  34   -1.49    0.00    0.00    0.96    0.03    0.00    0.00      -0.51   21.14    0.58
#  35  -22.58   -0.09    0.01   10.45    0.24    0.00    0.00     -11.97   25.82    0.59
#  36   -1.50   -0.12    0.01    0.48   -0.03    0.00    0.00      -1.17    3.90   -0.27
#  37   -0.42   -0.08    0.00    0.43   -0.02    0.00    0.00      -0.08    5.35   -0.22
#  38   -2.14   -0.21    0.02    0.44   -0.06    0.00    0.00      -1.95    2.00   -0.28
#  39   -1.11   -0.20    0.02    0.32   -0.07    0.00    0.00      -1.04    1.32   -0.28
#  40   -1.99   -0.33    0.09    0.83   -0.10    0.00    0.00      -1.49    2.44   -0.28
#  41   -0.73   -0.19    0.03    0.53   -0.05    0.00    0.00      -0.41    3.14   -0.28
#  42   -1.97   -0.15    0.00    0.16   -0.04    0.00    0.00      -2.00    1.10   -0.28
#  43   -2.12   -0.31    0.05    0.23   -0.08    0.00    0.00      -2.22    0.84   -0.28
#  44   -1.81   -0.70    0.30    0.54   -0.10    0.00    0.00      -1.78    1.42   -0.27
#  45   -1.56   -0.49    0.12    0.72   -0.12    0.00    0.00      -1.32    1.62   -0.27
#  46   -1.71   -0.22    0.01    0.70   -0.05    0.00    0.00      -1.26    2.95   -0.22
#  47   -2.57   -0.90    0.92    0.92   -0.11    0.00    0.00      -1.75    2.24   -0.28
#  48   -4.46   -1.51    2.30    0.97   -0.19    0.00    0.00      -2.89    1.45   -0.28
#  49   -6.10   -1.46    1.21    0.88   -0.18    0.00    0.00      -5.65    1.38   -0.28
#  50   -5.00   -0.45    0.06    0.47   -0.12    0.00    0.00      -5.04    1.05   -0.28

@<TRIPOS>MOLECULE
          T529342        13
   50    51     0     0     0



@<TRIPOS>ATOM
      1 C1          4.9044    -8.9633    90.6161 C.3        1          -0.1917
      2 C2          3.6290    -8.1498    90.3867 C.3        1           0.4028
      3 C3          2.4527    -9.0922    90.1238 C.3        1          -0.1738
      4 N1          3.8131    -7.2448    89.2372 N.pl3      1          -0.7066
      5 C4          4.6019    -6.1204    89.4374 C.cat      1           0.7709
      6 N2          5.4952    -5.7430    88.5680 N.pl3      1          -0.6664
      7 H1          5.6241    -6.2525    87.7527 H          1           0.4687
      8 H2          6.0317    -4.9524    88.7358 H          1           0.4605
      9 N3          4.3845    -5.4183    90.6216 N.pl3      1          -0.6711
     10 C5          4.1394    -6.1918    91.7548 C.cat      1           0.7644
     11 N4          4.6258    -5.8765    92.9213 N.pl3      1          -0.6724
     12 H3          5.1761    -5.0837    93.0192 H          1           0.4599
     13 H4          4.4378    -6.4347    93.6920 H          1           0.4603
     14 N5          3.3475    -7.3165    91.5704 N.pl3      1          -0.4874
     15 O1          2.3138    -7.6493    92.4791 O.3        1          -0.0699
     16 C6          1.3043    -6.6460    92.6042 C.3        1           0.0016
     17 C7          0.5417    -6.8497    93.9147 C.3        1          -0.1146
     18 C8          1.5135    -6.7449    95.0917 C.3        1          -0.1128
     19 C9          2.1670    -5.3615    95.0920 C.3        1          -0.1212
     20 C10         3.1388    -5.2567    96.2691 C.3        1           0.0592
     21 O2          4.1484    -6.2603    96.1442 O.3        1          -0.3161
     22 C11         5.4352    -5.8330    96.0530 C.ar       1           0.1216
     23 C12         6.4667    -6.6272    96.5326 C.ar       1          -0.2106
     24 C13         7.7739    -6.1908    96.4383 C.ar       1          -0.0810
     25 C14         8.0548    -4.9634    95.8670 C.ar       1          -0.1516
     26 C15         7.0286    -4.1698    95.3886 C.ar       1          -0.0770
     27 C16         5.7200    -4.6044    95.4750 C.ar       1          -0.1495
     28 H5          5.1068    -9.5769    89.7382 H          1           0.1125
     29 H6          5.7412    -8.2864    90.7873 H          1           0.1244
     30 H7          4.7734    -9.6065    91.4864 H          1           0.0691
     31 H8          1.5476    -8.5071    89.9613 H          1           0.1107
     32 H9          2.6602    -9.6941    89.2391 H          1           0.1010
     33 H10         2.3125    -9.7469    90.9840 H          1           0.1153
     34 H11         3.4007    -7.4270    88.3784 H          1           0.4664
     35 H12         4.4024    -4.4490    90.6550 H          1           0.4809
     36 H13         1.7698    -5.6601    92.6042 H          1           0.0937
     37 H14         0.6119    -6.7204    91.7655 H          1           0.0675
     38 H15        -0.2283    -6.0840    94.0100 H          1           0.0888
     39 H16         0.0761    -7.8352    93.9146 H          1           0.0943
     40 H17         0.9703    -6.8902    96.0255 H          1           0.0766
     41 H18         2.2836    -7.5105    94.9966 H          1           0.0730
     42 H19         2.7104    -5.2162    94.1582 H          1           0.0801
     43 H20         1.3971    -4.5959    95.1871 H          1           0.0817
     44 H21         3.6043    -4.2711    96.2691 H          1           0.0627
     45 H22         2.5955    -5.4019    97.2029 H          1           0.0615
     46 H23         6.2477    -7.5856    96.9797 H          1           0.1231
     47 H24         8.5773    -6.8087    96.8116 H          1           0.1265
     48 H25         9.0775    -4.6239    95.7945 H          1           0.1283
     49 H26         7.2505    -3.2114    94.9430 H          1           0.1339
     50 H27         4.9192    -3.9861    95.0972 H          1           0.1318
@<TRIPOS>BOND
     1    1    2 1
     2    1   28 1
     3    1   29 1
     4    1   30 1
     5    2   14 1
     6    2    3 1
     7    2    4 1
     8    3   31 1
     9    3   32 1
    10    3   33 1
    11    4    5 1
    12    4   34 1
    13    5    6 2
    14    5    9 1
    15    6    7 1
    16    6    8 1
    17    9   10 1
    18    9   35 1
    19   10   11 2
    20   10   14 1
    21   11   12 1
    22   11   13 1
    23   14   15 1
    24   15   16 1
    25   16   17 1
    26   16   36 1
    27   16   37 1
    28   17   18 1
    29   17   38 1
    30   17   39 1
    31   18   19 1
    32   18   40 1
    33   18   41 1
    34   19   20 1
    35   19   42 1
    36   19   43 1
    37   20   21 1
    38   20   44 1
    39   20   45 1
    40   21   22 1
    41   22   27 ar
    42   22   23 ar
    43   23   24 ar
    44   23   46 1
    45   24   25 ar
    46   24   47 1
    47   25   26 ar
    48   25   48 1
    49   26   27 ar
    50   26   49 1
    51   27   50 1
##########                 Name:              T529717
##########          Protonation:                   99
##########               SMILES:   C[C@@H](Cc1ccc(cc1)SC(C)C)[NH2+]C[C@H](c2cccc(c2)Cl)O
##########            Long Name:   2-hydroxy-ethyl]-[(1S)-2-(4-isopropylsulfanylphenyl)-1-methyl-ethyl]ammonium
##########          FlexRecCode: 1
##########               Number:                  140
##########   Ligand Source File: /raidb/db2/rgc/tcams/tcams-0000570.db2.gz
##########           GlobalRank: 293
##########                 Rank:                    1
##########               Setnum:                  415
##########             Matchnum:                 3099
##########                Cloud:                    1
##########        Electrostatic:           -50.589199
##########        Van der Waals:           -22.400967
##########  Ligand Polar Desolv:            11.543230
########## Ligand Apolar Desolv:            -3.742629
##########      Internal Energy:             0.000000
##########      Receptor Energy: 0.0
########## Receptor Desolvation:             0.000000
########## Receptor Hydrophobic:             0.000000
##########         Total Energy: -65.19
##########        Ligand Charge:             1.000000
##########            Arbitrary:    +999.9990
##########     heavy atom count:   24
##########           pose count:    1
##########        Ligand Energy:             0.000000
# num electro vdwattr vdwrepu polsolv apolsol rdesolv rhydroe totalscore fullpol fullapo
#   1    3.38   -2.13    0.53   -0.77   -0.11    0.00    0.00       0.89   -1.25   -0.18
#   2    1.41   -1.68    0.68   -0.21   -0.06    0.00    0.00       0.14   -0.40   -0.11
#   3    2.04   -1.59    0.60   -0.55   -0.09    0.00    0.00       0.41   -1.09   -0.18
#   4    1.10   -2.25    0.30   -0.82   -0.31    0.00    0.00      -1.99   -2.03   -0.76
#   5    1.04   -1.21    0.11   -0.51   -0.12    0.00    0.00      -0.68   -1.28   -0.29
#   6    3.07   -1.58    0.29   -0.91   -0.16    0.00    0.00       0.71   -2.22   -0.38
#   7    2.74   -1.87    0.45   -0.85   -0.21    0.00    0.00       0.26   -1.83   -0.45
#   8    4.18   -2.04    0.60   -0.84   -0.15    0.00    0.00       1.75   -1.84   -0.33
#   9    3.40   -2.08    0.69   -1.42   -0.11    0.00    0.00       0.48   -2.73   -0.21
#  10   -0.99   -1.32    0.27    0.97   -0.11    0.00    0.00      -1.18    2.21   -0.24
#  11    4.47   -0.64    0.03   -1.91   -0.06    0.00    0.00       1.90   -5.81   -0.19
#  12   21.90   -2.45    2.11   -6.42    0.24    0.00    0.00      15.38  -16.68    0.62
#  13  -28.59   -0.20    0.06    6.24    0.18    0.00    0.00     -22.31   14.58    0.42
#  14  -16.37   -0.02    0.00    3.33    0.11    0.00    0.00     -12.96   16.56    0.53
#  15    1.38   -1.34    0.49   -0.25   -0.12    0.00    0.00       0.17   -0.78   -0.36
#  16   -4.07   -1.17    0.42    1.21   -0.04    0.00    0.00      -3.65    3.96   -0.14
#  17   16.64   -1.06    0.33   -3.61    0.40    0.00    0.00      12.69  -14.98    1.64
#  18    1.28   -0.65    0.05   -0.43   -0.08    0.00    0.00       0.18   -1.92   -0.35
#  19    0.68   -0.25    0.00   -0.18   -0.04    0.00    0.00       0.21   -1.79   -0.44
#  20    0.20   -0.16    0.00   -0.12   -0.03    0.00    0.00      -0.11   -1.88   -0.47
#  21    0.13   -0.22    0.00   -0.16   -0.04    0.00    0.00      -0.28   -1.73   -0.46
#  22    0.05   -0.63    0.06   -0.19   -0.06    0.00    0.00      -0.76   -0.94   -0.30
#  23    0.05   -3.25    1.86   -0.33   -0.32    0.00    0.00      -1.99   -1.04   -0.99
#  24    0.24   -1.26    0.34   -0.48   -0.12    0.00    0.00      -1.28   -1.78   -0.44
#  25    2.62   -2.11    0.71   -0.86   -0.16    0.00    0.00       0.20   -2.04   -0.38
#  26    1.41   -1.63    0.26   -0.83   -0.20    0.00    0.00      -0.99   -1.96   -0.46
#  27   -1.32   -0.74    0.31    0.14   -0.16    0.00    0.00      -1.76    0.25   -0.28
#  28   -1.87   -0.88    0.79    0.43   -0.16    0.00    0.00      -1.69    0.76   -0.28
#  29   -1.58   -1.19    0.86    0.40   -0.14    0.00    0.00      -1.65    0.65   -0.22
#  30   -1.80   -1.44    3.10    0.44   -0.10    0.00    0.00       0.20    1.08   -0.24
#  31   -0.87   -0.58    0.36    0.09   -0.09    0.00    0.00      -1.10    0.26   -0.28
#  32   -1.09   -0.66    0.36    0.21   -0.13    0.00    0.00      -1.31    0.43   -0.28
#  33   -1.09   -0.32    0.04    0.32   -0.11    0.00    0.00      -1.15    0.84   -0.28
#  34   -3.26   -0.78    0.80    0.44   -0.06    0.00    0.00      -2.87    1.21   -0.17
#  35   -6.59   -0.95    2.03    1.48   -0.13    0.00    0.00      -4.16    3.27   -0.28
#  36   -3.13   -1.49    1.96    2.06   -0.14    0.00    0.00      -0.74    4.20   -0.28
#  37   -5.04   -0.79    0.20    1.74   -0.16    0.00    0.00      -4.05    3.06   -0.28
#  38   -4.50   -0.85    0.88    2.17   -0.12    0.00    0.00      -2.43    4.94   -0.28
#  39   -2.23   -0.13    0.00    0.26   -0.04    0.00    0.00      -2.14    1.98   -0.28
#  40   -1.69   -0.13    0.00    0.32   -0.02    0.00    0.00      -1.51    3.23   -0.21
#  41   -2.17   -0.27    0.03    0.84   -0.08    0.00    0.00      -1.66    3.12   -0.28
#  42   -2.66   -0.14    0.01    0.94   -0.03    0.00    0.00      -1.89    6.32   -0.22
#  43   -3.75   -1.26    2.38    1.94   -0.10    0.00    0.00      -0.80    5.17   -0.28
#  44   -5.86   -1.01    1.47    1.39   -0.10    0.00    0.00      -4.10    3.88   -0.28
#  45  -17.28   -0.06    0.01    2.86    0.24    0.00    0.00     -14.24   12.21    1.01
#  46   -0.96   -0.05    0.00    0.24   -0.01    0.00    0.00      -0.78    5.30   -0.24
#  47   -0.13   -0.02    0.00    0.06   -0.01    0.00    0.00      -0.10    2.27   -0.28
#  48   -0.17   -0.03    0.00    0.03   -0.01    0.00    0.00      -0.19    0.77   -0.28
#  49   -0.40   -0.79    0.77    0.99   -0.10    0.00    0.00       0.47    2.73   -0.28
#  50   -3.02   -0.49    0.17    2.06   -0.10    0.00    0.00      -1.38    5.65   -0.28
#  51   -1.50   -0.52    0.18    0.61   -0.12    0.00    0.00      -1.34    1.49   -0.28

@<TRIPOS>MOLECULE
          T529717        99
   51    52     0     0     0



@<TRIPOS>ATOM
      1 C1          8.5485    -7.5852    99.2467 C.3        1          -0.1560
      2 C2          8.7912    -8.1210    97.8344 C.3        1          -0.0816
      3 C3          9.8148    -9.2569    97.8886 C.3        1          -0.1388
      4 S1          7.2321    -8.7445    97.1479 S.3        1          -0.0956
      5 C4          6.3957    -7.2927    96.6027 C.ar       1          -0.0651
      6 C5          6.9753    -6.4749    95.6401 C.ar       1          -0.1274
      7 C6          6.3169    -5.3379    95.2154 C.ar       1          -0.0809
      8 C7          5.0822    -5.0125    95.7467 C.ar       1          -0.1404
      9 C8          4.3668    -3.7708    95.2804 C.3        1          -0.0961
     10 C9          3.4772    -4.1136    94.0838 C.3        1           0.0297
     11 C10         2.4497    -5.1689    94.4979 C.3        1          -0.1839
     12 N1          4.3068    -4.6399    92.9917 N.4        1          -0.5057
     13 H1          4.9844    -3.9438    92.7186 H          1           0.4269
     14 H2          4.7858    -5.4714    93.3039 H          1           0.4289
     15 C11         3.4527    -4.9690    91.8428 C.3        1          -0.0467
     16 C12         4.3168    -5.5172    90.7053 C.3        1           0.1366
     17 O1          5.3240    -6.3761    91.2437 O.3        1          -0.5438
     18 C13         3.4518    -6.2959    89.7478 C.ar       1          -0.1288
     19 C14         3.2539    -7.6506    89.9405 C.ar       1          -0.1045
     20 C15         2.4605    -8.3654    89.0630 C.ar       1          -0.0962
     21 C16         1.8646    -7.7260    87.9919 C.ar       1          -0.0914
     22 C17         2.0622    -6.3707    87.7987 C.ar       1          -0.0309
     23 Cl1         1.3138    -5.5670    86.4541 Cl         1          -0.0478
     24 C18         2.8521    -5.6545    88.6807 C.ar       1          -0.0940
     25 C19         4.5021    -5.8243    96.7045 C.ar       1          -0.1186
     26 C20         5.1523    -6.9657    97.1301 C.ar       1          -0.0933
     27 H3          7.8193    -6.7761    99.2079 H          1           0.0733
     28 H4          8.1679    -8.3874    99.8792 H          1           0.0741
     29 H5          9.4853    -7.2107    99.6592 H          1           0.0595
     30 H6          9.1716    -7.3190    97.2019 H          1           0.0944
     31 H7          9.9878    -9.6386    96.8824 H          1           0.0700
     32 H8         10.7517    -8.8823    98.3011 H          1           0.0693
     33 H9          9.4344   -10.0590    98.5211 H          1           0.0812
     34 H10         7.9396    -6.7282    95.2250 H          1           0.1334
     35 H11         6.7669    -4.7017    94.4675 H          1           0.1318
     36 H12         3.7512    -3.3803    96.0907 H          1           0.0987
     37 H13         5.0988    -3.0189    94.9855 H          1           0.1212
     38 H14         2.9599    -3.2154    93.7467 H          1           0.1402
     39 H15         1.8159    -5.4131    93.6453 H          1           0.1086
     40 H16         2.9671    -6.0671    94.8350 H          1           0.0818
     41 H17         1.8341    -4.7783    95.3082 H          1           0.0846
     42 H18         2.7207    -5.7208    92.1378 H          1           0.1405
     43 H19         2.9352    -4.0709    91.5056 H          1           0.1444
     44 H20         4.7896    -4.6893    90.1769 H          1           0.1319
     45 H21         5.9188    -5.9406    91.8695 H          1           0.3887
     46 H22         3.7198    -8.1507    90.7767 H          1           0.1295
     47 H23         2.3062    -9.4235    89.2140 H          1           0.1424
     48 H24         1.2452    -8.2848    87.3059 H          1           0.1433
     49 H25         3.0035    -4.5955    88.5327 H          1           0.1385
     50 H26         3.5376    -5.5673    97.1169 H          1           0.1272
     51 H27         4.6966    -7.6015    97.8749 H          1           0.1365
@<TRIPOS>BOND
     1    1    2 1
     2    1   27 1
     3    1   28 1
     4    1   29 1
     5    2    3 1
     6    2    4 1
     7    2   30 1
     8    3   31 1
     9    3   32 1
    10    3   33 1
    11    4    5 1
    12    5   26 ar
    13    5    6 ar
    14    6    7 ar
    15    6   34 1
    16    7    8 ar
    17    7   35 1
    18    8    9 1
    19    8   25 ar
    20    9   10 1
    21    9   36 1
    22    9   37 1
    23   10   11 1
    24   10   12 1
    25   10   38 1
    26   11   39 1
    27   11   40 1
    28   11   41 1
    29   12   13 1
    30   12   14 1
    31   12   15 1
    32   15   16 1
    33   15   42 1
    34   15   43 1
    35   16   17 1
    36   16   18 1
    37   16   44 1
    38   17   45 1
    39   18   24 ar
    40   18   19 ar
    41   19   20 ar
    42   19   46 1
    43   20   21 ar
    44   20   47 1
    45   21   22 ar
    46   21   48 1
    47   22   23 1
    48   22   24 ar
    49   24   49 1
    50   25   26 ar
    51   25   50 1
    52   26   51 1
##########                 Name:              T540076
##########          Protonation:                   90
##########               SMILES:   c1cc(c(cc1/C=C/C(=O)NCCCC[NH+]2CCCN(CC2)C(=O)Nc3cc(cc(c3)Cl)Cl)Cl)Cl
##########            Long Name:   ,4-dichlorophenyl)prop-2-enoyl]amino]butyl]-1,4-diazepan-4-ium-1-carboxamide
##########          FlexRecCode: 1
##########               Number:                  243
##########   Ligand Source File: /raidb/db2/rgc/tcams/tcams-0001966.db2.gz
##########           GlobalRank: 293
##########                 Rank:                    1
##########               Setnum:                  336
##########             Matchnum:                 1251
##########                Cloud:                    1
##########        Electrostatic:           -36.253334
##########        Van der Waals:           -32.491184
##########  Ligand Polar Desolv:             8.247534
########## Ligand Apolar Desolv:            -4.690259
##########      Internal Energy:             0.000000
##########      Receptor Energy: 0.0
########## Receptor Desolvation:             0.000000
########## Receptor Hydrophobic:             0.000000
##########         Total Energy: -65.19
##########        Ligand Charge:             1.000000
##########            Arbitrary:    +999.9990
##########     heavy atom count:   35
##########           pose count:    1
##########        Ligand Energy:             0.000000
# num electro vdwattr vdwrepu polsolv apolsol rdesolv rhydroe totalscore fullpol fullapo
#   1    0.42   -5.17    2.07   -0.29   -0.57    0.00    0.00      -3.53   -0.50   -0.99
#   2    0.02   -1.56    0.17   -0.10   -0.16    0.00    0.00      -1.62   -0.18   -0.30
#   3    0.55   -1.59    0.23   -0.56   -0.18    0.00    0.00      -1.55   -1.38   -0.45
#   4   -1.01   -1.41    0.18    0.87   -0.24    0.00    0.00      -1.61    2.43   -0.68
#   5    3.01   -1.53    0.48   -3.48    0.53    0.00    0.00      -0.99  -10.97    1.67
#   6   -5.34   -1.36    0.39    3.61   -0.64    0.00    0.00      -3.34   11.42   -2.02
#   7    3.86   -1.77    0.36   -2.91    0.13    0.00    0.00      -0.33   -7.12    0.32
#   8    9.81   -0.78    0.05   -3.66    0.38    0.00    0.00       5.81  -13.85    1.44
#   9   -2.10   -0.57    0.02    0.63   -0.14    0.00    0.00      -2.15    2.03   -0.46
#  10    5.51   -1.04    0.16   -1.87   -0.10    0.00    0.00       2.66   -4.42   -0.24
#  11    0.46   -1.27    0.39   -0.13   -0.14    0.00    0.00      -0.70   -0.33   -0.36
#  12   13.86   -1.76    1.30   -3.39    0.05    0.00    0.00      10.06  -11.60    0.18
#  13  -23.58   -0.14    0.05    4.75    0.13    0.00    0.00     -18.79   16.80    0.45
#  14    0.55   -1.33    0.50    0.04   -0.11    0.00    0.00      -0.35    0.12   -0.34
#  15    3.63   -1.00    0.27   -1.25   -0.06    0.00    0.00       1.59   -4.29   -0.20
#  16    0.59   -1.12    0.38   -0.90   -0.07    0.00    0.00      -1.12   -2.96   -0.22
#  17   -0.27   -0.49    0.06    0.39   -0.09    0.00    0.00      -0.40    1.80   -0.42
#  18    2.12   -0.23    0.00   -1.07    0.23    0.00    0.00       1.06  -10.80    2.33
#  19   -1.51   -0.18    0.00    0.41   -0.05    0.00    0.00      -1.33    5.31   -0.65
#  20    1.69   -0.22    0.00   -0.31    0.04    0.00    0.00       1.20   -3.07    0.39
#  21    0.13   -0.20    0.01   -0.18   -0.04    0.00    0.00      -0.28   -2.14   -0.43
#  22    0.00   -0.38    0.04   -0.06   -0.06    0.00    0.00      -0.44   -0.41   -0.44
#  23    0.02   -0.70    0.25   -0.07   -0.07    0.00    0.00      -0.58   -0.45   -0.41
#  24    0.03   -0.78    0.24   -0.14   -0.08    0.00    0.00      -0.74   -0.71   -0.43
#  25    0.01   -0.77    0.15   -0.08   -0.06    0.00    0.00      -0.75   -0.35   -0.30
#  26    0.01   -2.13    0.97   -0.08   -0.24    0.00    0.00      -1.47   -0.33   -0.95
#  27    0.00   -0.60    0.07   -0.06   -0.06    0.00    0.00      -0.65   -0.32   -0.30
#  28    0.01   -1.11    0.11   -0.07   -0.23    0.00    0.00      -1.29   -0.28   -0.95
#  29    0.00   -0.68    0.20   -0.12   -0.07    0.00    0.00      -0.66   -0.74   -0.46
#  30    0.00   -0.82    0.50   -0.10   -0.07    0.00    0.00      -0.48   -0.68   -0.45
#  31    0.98   -0.39    0.03   -0.07   -0.08    0.00    0.00       0.47   -0.36   -0.39
#  32   -2.23   -0.45    0.03    0.54   -0.10    0.00    0.00      -2.21    2.29   -0.42
#  33    1.18   -1.49    0.22   -0.43   -0.16    0.00    0.00      -0.68   -1.05   -0.39
#  34    0.06   -1.92    0.66   -0.10   -0.14    0.00    0.00      -1.44   -0.21   -0.30
#  35    0.88   -6.43    4.50   -0.28   -0.59    0.00    0.00      -1.92   -0.47   -0.99
#  36    0.96   -1.86    0.51   -0.53   -0.24    0.00    0.00      -1.16   -0.99   -0.45
#  37   -0.29   -0.41    0.10    0.81   -0.08    0.00    0.00       0.13    2.70   -0.28
#  38   -1.24   -0.02    0.00    1.68    0.07    0.00    0.00       0.50    9.19    0.41
#  39   -1.75   -0.13    0.00    0.25   -0.02    0.00    0.00      -1.65    2.36   -0.20
#  40   -2.00   -0.24    0.02    0.48   -0.07    0.00    0.00      -1.81    2.03   -0.28
#  41   -4.36   -0.46    0.08    1.76   -0.12    0.00    0.00      -3.09    4.13   -0.28
#  42   -4.16   -0.50    0.34    1.65   -0.09    0.00    0.00      -2.76    4.59   -0.25
#  43   -3.39   -0.19    0.01    0.66   -0.05    0.00    0.00      -2.96    3.19   -0.24
#  44   -6.35   -0.91    0.78    2.56   -0.09    0.00    0.00      -4.01    5.90   -0.21
#  45   -2.13   -0.17    0.02    0.94   -0.05    0.00    0.00      -1.39    5.60   -0.27
#  46   -4.90   -1.16    1.32    1.95   -0.12    0.00    0.00      -2.90    4.56   -0.27
#  47   -3.78   -0.74    0.63    1.03   -0.07    0.00    0.00      -2.93    3.32   -0.21
#  48   -1.67   -0.10    0.00    0.33   -0.03    0.00    0.00      -1.46    3.45   -0.28
#  49   -0.67   -1.17    1.88    1.00   -0.12    0.00    0.00       0.92    2.41   -0.28
#  50   -0.29   -0.21    0.04    0.40   -0.05    0.00    0.00      -0.11    2.32   -0.28
#  51   -0.16   -0.18    0.04    0.12   -0.04    0.00    0.00      -0.22    0.76   -0.28
#  52   -0.13   -0.17    0.02    0.12   -0.04    0.00    0.00      -0.20    0.74   -0.28
#  53   -0.88    0.00    0.00    0.28    0.02    0.00    0.00      -0.58    8.17    0.56
#  54   -0.07   -0.03    0.00    0.10   -0.01    0.00    0.00       0.00    2.79   -0.21
#  55   -0.13   -0.06    0.00    0.07   -0.02    0.00    0.00      -0.14    1.03   -0.26
#  56   -0.09   -0.15    0.05    0.31   -0.03    0.00    0.00       0.09    2.34   -0.21
#  57   -0.04   -0.09    0.01    0.11   -0.02    0.00    0.00      -0.03    1.37   -0.28
#  58   -0.02   -0.09    0.02    0.16   -0.02    0.00    0.00       0.05    2.04   -0.28
#  59   -1.88   -0.09    0.00    0.22   -0.02    0.00    0.00      -1.76    2.84   -0.28
#  60   -2.32   -0.07    0.00    0.42   -0.02    0.00    0.00      -1.99    6.35   -0.26
#  61   -3.08   -0.24    0.05    1.01   -0.06    0.00    0.00      -2.31    4.86   -0.28
#  62   -1.52   -0.11    0.01    0.13   -0.03    0.00    0.00      -1.53    1.16   -0.24
#  63   -2.14   -0.24    0.01    0.35   -0.06    0.00    0.00      -2.08    1.32   -0.22
#  64   -1.14   -0.42    0.09    0.37   -0.14    0.00    0.00      -1.24    0.77   -0.28

@<TRIPOS>MOLECULE
          T540076        90
   64    66     0     0     0



@<TRIPOS>ATOM
      1 Cl1         8.4261   -13.6939    96.9397 Cl         1          -0.0388
      2 C1          8.0992   -11.9954    97.0892 C.ar       1          -0.0028
      3 C2          7.2685   -11.3694    96.1787 C.ar       1          -0.1315
      4 C3          7.0073   -10.0109    96.2988 C.ar       1           0.1747
      5 N1          6.1664    -9.3749    95.3787 N.am       1          -0.6764
      6 C4          5.4330    -8.3103    95.7600 C.2        1           0.7024
      7 O1          5.0546    -8.2137    96.9115 O.2        1          -0.5476
      8 N2          5.1191    -7.3528    94.8650 N.am       1          -0.6355
      9 C5          4.3178    -6.1661    95.2591 C.3        1           0.0942
     10 C6          4.6571    -4.8119    94.6828 C.3        1          -0.1571
     11 C7          3.9427    -4.6594    93.3242 C.3        1          -0.0123
     12 N3          4.5161    -5.4767    92.3187 N.4        1          -0.3663
     13 H1          5.4855    -5.2178    92.2115 H          1           0.4181
     14 C8          3.8239    -5.2083    91.0511 C.3        1          -0.0186
     15 C9          4.7011    -5.6663    89.8841 C.3        1          -0.1450
     16 C10         3.9802    -5.3868    88.5639 C.3        1          -0.1308
     17 C11         2.6542    -6.1496    88.5355 C.3        1           0.1195
     18 N4          2.9148    -7.5864    88.6550 N.am       1          -0.7325
     19 C12         2.3982    -8.2813    89.6879 C.2        1           0.5521
     20 O2          1.7155    -7.7152    90.5213 O.2        1          -0.5373
     21 C13         2.6584    -9.7169    89.8073 C.2        1          -0.2188
     22 C14         1.7486   -10.5205    90.3945 C.2        1          -0.0046
     23 C15         2.0102   -11.9637    90.5145 C.ar       1          -0.0674
     24 C16         0.9522   -12.8545    90.7230 C.ar       1          -0.0820
     25 C17         1.2050   -14.2059    90.8340 C.ar       1          -0.0348
     26 Cl2        -0.1061   -15.3140    91.0922 Cl         1          -0.0392
     27 C18         2.5044   -14.6812    90.7393 C.ar       1          -0.0197
     28 Cl3         2.8141   -16.3835    90.8801 Cl         1          -0.0354
     29 C19         3.5560   -13.8040    90.5324 C.ar       1          -0.0984
     30 C20         3.3172   -12.4512    90.4147 C.ar       1          -0.0744
     31 C21         4.4476    -6.9163    92.5853 C.3        1          -0.0469
     32 C22         5.5682    -7.4456    93.4523 C.3        1           0.1144
     33 C23         7.5818    -9.2848    97.3335 C.ar       1          -0.1093
     34 C24         8.4118    -9.9155    98.2414 C.ar       1          -0.0049
     35 Cl4         9.1303    -9.0084    99.5354 Cl         1          -0.0412
     36 C25         8.6658   -11.2707    98.1228 C.ar       1          -0.1108
     37 H2          6.8232   -11.9364    95.3745 H          1           0.1445
     38 H3          6.1112    -9.7002    94.4665 H          1           0.4112
     39 H4          3.2784    -6.3763    95.0068 H          1           0.0926
     40 H5          4.3730    -6.0814    96.3444 H          1           0.0955
     41 H6          4.3207    -4.0297    95.3633 H          1           0.1288
     42 H7          5.7351    -4.7344    94.5404 H          1           0.0953
     43 H8          2.8940    -4.9309    93.4444 H          1           0.1289
     44 H9          4.0026    -3.6175    93.0089 H          1           0.1398
     45 H10         2.8793    -5.7516    91.0308 H          1           0.1353
     46 H11         3.6301    -4.1393    90.9623 H          1           0.1319
     47 H12         5.6457    -5.1228    89.9045 H          1           0.0911
     48 H13         4.8948    -6.7352    89.9730 H          1           0.0933
     49 H14         3.7863    -4.3178    88.4751 H          1           0.0837
     50 H15         4.6050    -5.7130    87.7325 H          1           0.0826
     51 H16         2.0294    -5.8233    89.3669 H          1           0.0715
     52 H17         2.1406    -5.9505    87.5949 H          1           0.0722
     53 H18         3.4589    -8.0375    87.9908 H          1           0.4041
     54 H19         3.5792   -10.1324    89.4251 H          1           0.1320
     55 H20         0.8279   -10.1049    90.7766 H          1           0.1444
     56 H21        -0.0599   -12.4852    90.7972 H          1           0.1459
     57 H22         4.5655   -14.1810    90.4593 H          1           0.1508
     58 H23         4.1380   -11.7692    90.2494 H          1           0.1475
     59 H24         3.4980    -7.1317    93.0749 H          1           0.1316
     60 H25         4.4681    -7.4451    91.6325 H          1           0.1471
     61 H26         6.4663    -6.8449    93.3094 H          1           0.1035
     62 H27         5.7743    -8.4849    93.1970 H          1           0.1345
     63 H28         7.3804    -8.2280    97.4289 H          1           0.1544
     64 H29         9.3108   -11.7627    98.8359 H          1           0.1509
@<TRIPOS>BOND
     1    1    2 1
     2    2   36 ar
     3    2    3 ar
     4    3    4 ar
     5    3   37 1
     6    4    5 1
     7    4   33 ar
     8    5    6 am
     9    5   38 1
    10    6    7 2
    11    6    8 am
    12    8   32 1
    13    8    9 1
    14    9   10 1
    15    9   39 1
    16    9   40 1
    17   10   11 1
    18   10   41 1
    19   10   42 1
    20   11   12 1
    21   11   43 1
    22   11   44 1
    23   12   13 1
    24   12   14 1
    25   12   31 1
    26   14   15 1
    27   14   45 1
    28   14   46 1
    29   15   16 1
    30   15   47 1
    31   15   48 1
    32   16   17 1
    33   16   49 1
    34   16   50 1
    35   17   18 1
    36   17   51 1
    37   17   52 1
    38   18   19 am
    39   18   53 1
    40   19   20 2
    41   19   21 1
    42   21   22 2
    43   21   54 1
    44   22   23 1
    45   22   55 1
    46   23   30 ar
    47   23   24 ar
    48   24   25 ar
    49   24   56 1
    50   25   26 1
    51   25   27 ar
    52   27   28 1
    53   27   29 ar
    54   29   30 ar
    55   29   57 1
    56   30   58 1
    57   31   32 1
    58   31   59 1
    59   31   60 1
    60   32   61 1
    61   32   62 1
    62   33   34 ar
    63   33   63 1
    64   34   35 1
    65   34   36 ar
    66   36   64 1
##########                 Name:              T533632
##########          Protonation:                   95
##########               SMILES:   c1cc(c(cc1/C=C/C(=O)NCCCCCC[NH+]2CCCN(CC2)C(=O)Nc3ccc(c(c3)F)F)Cl)Cl
##########            Long Name:   2-enoyl]amino]hexyl]-N-(3,4-difluorophenyl)-1,4-diazepan-4-ium-1-carboxamide
##########          FlexRecCode: 1
##########               Number:                  346
##########   Ligand Source File: /raidb/db2/rgc/tcams/tcams-0001187.db2.gz
##########           GlobalRank: 294
##########                 Rank:                    1
##########               Setnum:                  352
##########             Matchnum:                 2900
##########                Cloud:                    1
##########        Electrostatic:           -38.035259
##########        Van der Waals:           -31.073406
##########  Ligand Polar Desolv:             8.392964
########## Ligand Apolar Desolv:            -4.456505
##########      Internal Energy:             0.000000
##########      Receptor Energy: 0.0
########## Receptor Desolvation:             0.000000
########## Receptor Hydrophobic:             0.000000
##########         Total Energy: -65.17
##########        Ligand Charge:             1.000000
##########            Arbitrary:    +999.9990
##########     heavy atom count:   37
##########           pose count:    1
##########        Ligand Energy:             0.000000
# num electro vdwattr vdwrepu polsolv apolsol rdesolv rhydroe totalscore fullpol fullapo
#   1    0.78   -1.94    1.72   -0.15   -0.28    0.00    0.00       0.13   -0.25   -0.47
#   2   -0.56   -2.04    0.60   -0.11   -0.19    0.00    0.00      -2.30   -0.21   -0.34
#   3    1.33   -2.05    0.72   -0.48   -0.24    0.00    0.00      -0.72   -0.93   -0.47
#   4    1.40   -1.59    0.28   -0.59   -0.21    0.00    0.00      -0.70   -1.29   -0.46
#   5   -1.09   -1.43    0.19    0.93   -0.25    0.00    0.00      -1.65    2.54   -0.68
#   6    3.39   -1.44    0.30   -3.85    0.56    0.00    0.00      -1.04  -11.45    1.67
#   7   -5.42   -1.38    0.31    3.87   -0.69    0.00    0.00      -3.31   11.40   -2.02
#   8    4.15   -1.96    0.46   -2.95    0.14    0.00    0.00      -0.16   -6.83    0.32
#   9    9.24   -0.83    0.06   -3.96    0.41    0.00    0.00       4.91  -13.93    1.44
#  10   -2.01   -0.61    0.03    0.68   -0.15    0.00    0.00      -2.06    2.08   -0.46
#  11    5.30   -1.00    0.13   -1.89   -0.10    0.00    0.00       2.44   -4.46   -0.24
#  12    0.42   -1.10    0.29   -0.12   -0.14    0.00    0.00      -0.65   -0.33   -0.36
#  13   13.39   -1.53    1.07   -3.15    0.05    0.00    0.00       9.83  -11.34    0.18
#  14  -22.69   -0.12    0.03    4.47    0.12    0.00    0.00     -18.18   16.58    0.45
#  15    0.59   -1.10    0.34    0.02   -0.10    0.00    0.00      -0.26    0.05   -0.34
#  16    3.83   -0.85    0.20   -1.14   -0.05    0.00    0.00       1.98   -4.20   -0.20
#  17    0.51   -0.81    0.15   -0.80   -0.06    0.00    0.00      -1.01   -2.85   -0.22
#  18    0.42   -0.51    0.06   -0.51   -0.05    0.00    0.00      -0.59   -2.37   -0.22
#  19    0.74   -0.16    0.00   -0.20   -0.02    0.00    0.00       0.36   -1.98   -0.22
#  20   -0.28   -0.09    0.00    0.07   -0.02    0.00    0.00      -0.32    1.24   -0.42
#  21    1.00   -0.08    0.00   -0.32    0.10    0.00    0.00       0.71   -7.47    2.33
#  22   -0.30   -0.14    0.00    0.22   -0.04    0.00    0.00      -0.25    3.45   -0.65
#  23    0.19   -0.21    0.01   -0.09    0.04    0.00    0.00      -0.06   -0.91    0.39
#  24    0.08   -0.18    0.01   -0.13   -0.03    0.00    0.00      -0.25   -1.71   -0.43
#  25    0.00   -0.43    0.10   -0.03   -0.05    0.00    0.00      -0.41   -0.25   -0.44
#  26    0.01   -0.40    0.05   -0.06   -0.05    0.00    0.00      -0.45   -0.42   -0.41
#  27    0.00   -0.83    0.16   -0.14   -0.10    0.00    0.00      -0.91   -0.60   -0.43
#  28    0.01   -0.73    0.05   -0.08   -0.09    0.00    0.00      -0.84   -0.29   -0.30
#  29    0.01   -3.88    2.36   -0.11   -0.40    0.00    0.00      -2.03   -0.26   -0.95
#  30    0.01   -0.49    0.03   -0.05   -0.06    0.00    0.00      -0.56   -0.25   -0.30
#  31    0.02   -1.42    0.18   -0.06   -0.24    0.00    0.00      -1.51   -0.22   -0.95
#  32    0.06   -0.27    0.01   -0.06   -0.04    0.00    0.00      -0.30   -0.65   -0.46
#  33    0.04   -0.19    0.01   -0.05   -0.04    0.00    0.00      -0.23   -0.58   -0.45
#  34    0.92   -0.38    0.02   -0.07   -0.08    0.00    0.00       0.41   -0.35   -0.39
#  35   -2.07   -0.47    0.03    0.56   -0.10    0.00    0.00      -2.05    2.29   -0.42
#  36    0.67   -1.54    0.20   -0.47   -0.17    0.00    0.00      -1.30   -1.10   -0.40
#  37   -0.67   -1.64    0.20   -0.02   -0.19    0.00    0.00      -2.32   -0.04   -0.34
#  38    1.05   -1.22    0.18   -0.10   -0.28    0.00    0.00      -0.37   -0.17   -0.47
#  39   -2.94   -0.48    0.11    1.01   -0.13    0.00    0.00      -2.43    2.19   -0.28
#  40   -2.11   -0.26    0.02    1.19   -0.08    0.00    0.00      -1.25    4.15   -0.28
#  41   -1.38   -0.02    0.00    1.95    0.08    0.00    0.00       0.63    9.96    0.41
#  42   -1.67   -0.14    0.00    0.32   -0.02    0.00    0.00      -1.51    2.63   -0.20
#  43   -1.92   -0.27    0.03    0.61   -0.08    0.00    0.00      -1.63    2.21   -0.28
#  44   -4.23   -0.49    0.10    1.84   -0.12    0.00    0.00      -2.89    4.35   -0.28
#  45   -3.86   -0.42    0.17    1.62   -0.09    0.00    0.00      -2.58    4.59   -0.25
#  46   -3.40   -0.17    0.01    0.56   -0.04    0.00    0.00      -3.04    3.11   -0.24
#  47   -6.33   -0.71    0.38    2.40   -0.09    0.00    0.00      -4.35    5.83   -0.21
#  48   -2.25   -0.13    0.01    0.70   -0.04    0.00    0.00      -1.72    5.05   -0.27
#  49   -4.93   -0.87    0.72    1.58   -0.10    0.00    0.00      -3.59    4.12   -0.27
#  50   -3.55   -0.65    0.50    0.92   -0.06    0.00    0.00      -2.83    3.31   -0.21
#  51   -1.62   -0.09    0.00    0.28   -0.02    0.00    0.00      -1.45    3.35   -0.28
#  52   -0.21   -0.12    0.01    0.22   -0.04    0.00    0.00      -0.14    1.67   -0.28
#  53   -0.66   -0.72    0.49    0.61   -0.10    0.00    0.00      -0.39    1.62   -0.28
#  54   -0.21   -0.17    0.02    0.18   -0.04    0.00    0.00      -0.21    1.25   -0.28
#  55   -0.62   -0.22    0.04    0.22   -0.05    0.00    0.00      -0.63    1.21   -0.28
#  56   -0.29   -0.04    0.00    0.07   -0.01    0.00    0.00      -0.29    1.37   -0.28
#  57   -0.71   -0.04    0.00    0.05   -0.01    0.00    0.00      -0.71    1.37   -0.28
#  58   -0.21   -0.03    0.00    0.01   -0.01    0.00    0.00      -0.24    0.37   -0.28
#  59   -0.12   -0.03    0.00    0.01   -0.01    0.00    0.00      -0.14    0.35   -0.28
#  60   -0.42    0.00    0.00    0.13    0.01    0.00    0.00      -0.29    6.18    0.56
#  61   -0.07   -0.02    0.00    0.06   -0.01    0.00    0.00      -0.03    2.36   -0.21
#  62   -0.02   -0.12    0.03    0.08   -0.03    0.00    0.00      -0.05    0.81   -0.26
#  63    0.03   -0.32    0.12    0.50   -0.05    0.00    0.00       0.29    1.99   -0.21
#  64   -0.10   -0.04    0.00    0.05   -0.01    0.00    0.00      -0.10    1.32   -0.28
#  65   -0.08   -0.02    0.00    0.04   -0.01    0.00    0.00      -0.07    1.88   -0.28
#  66   -1.71   -0.10    0.00    0.23   -0.03    0.00    0.00      -1.59    2.59   -0.28
#  67   -2.20   -0.07    0.00    0.39   -0.02    0.00    0.00      -1.89    6.00   -0.26
#  68   -2.84   -0.23    0.04    1.03   -0.06    0.00    0.00      -2.06    4.91   -0.28
#  69   -1.39   -0.13    0.01    0.13   -0.03    0.00    0.00      -1.41    1.07   -0.24
#  70   -0.54   -0.36    0.07    0.32   -0.07    0.00    0.00      -0.58    1.05   -0.22

@<TRIPOS>MOLECULE
          T533632        95
   70    72     0     0     0



@<TRIPOS>ATOM
      1 F1          9.7708   -11.8629    99.3411 F          1          -0.1214
      2 C1          8.9402   -11.2783    98.4504 C.ar       1           0.0625
      3 C2          8.6706    -9.9236    98.5421 C.ar       1          -0.1009
      4 C3          7.8213    -9.3238    97.6328 C.ar       1          -0.1215
      5 C4          7.2373   -10.0797    96.6249 C.ar       1           0.1670
      6 N1          6.3765    -9.4722    95.7022 N.am       1          -0.6764
      7 C5          5.6402    -8.4047    96.0692 C.2        1           0.7015
      8 O1          5.2786    -8.2835    97.2238 O.2        1          -0.5491
      9 N2          5.3048    -7.4714    95.1564 N.am       1          -0.6357
     10 C6          4.4994    -6.2820    95.5346 C.3        1           0.0946
     11 C7          4.8186    -4.9394    94.9212 C.3        1          -0.1571
     12 C8          4.0823    -4.8251    93.5704 C.3        1          -0.0117
     13 N3          4.6472    -5.6617    92.5758 N.4        1          -0.3665
     14 H1          5.6126    -5.3976    92.4477 H          1           0.4175
     15 C9          3.9337    -5.4292    91.3131 C.3        1          -0.0199
     16 C10         4.7967    -5.9079    90.1440 C.3        1          -0.1482
     17 C11         4.0535    -5.6658    88.8287 C.3        1          -0.1173
     18 C12         4.9165    -6.1446    87.6596 C.3        1          -0.1175
     19 C13         5.2029    -7.6394    87.8158 C.3        1          -0.1337
     20 C14         3.8831    -8.4133    87.8259 C.3        1           0.1181
     21 N4          4.1574    -9.8446    87.9754 N.am       1          -0.7303
     22 C15         4.2276   -10.3924    89.2049 C.2        1           0.5491
     23 O2          4.0631    -9.6981    90.1908 O.2        1          -0.5395
     24 C16         4.5018   -11.8226    89.3543 C.2        1          -0.2131
     25 C17         3.6079   -12.6193    89.9742 C.2        1          -0.0109
     26 C18         3.8834   -14.0571    90.1243 C.ar       1          -0.0640
     27 C19         3.2078   -14.8044    91.0948 C.ar       1          -0.0832
     28 C20         3.4710   -16.1517    91.2293 C.ar       1          -0.0341
     29 Cl1         2.6338   -17.0819    92.4322 Cl         1          -0.0403
     30 C21         4.4027   -16.7646    90.4050 C.ar       1          -0.0212
     31 Cl2         4.7281   -18.4609    90.5809 Cl         1          -0.0372
     32 C22         5.0745   -16.0301    89.4421 C.ar       1          -0.0983
     33 C23         4.8177   -14.6837    89.2935 C.ar       1          -0.0757
     34 C24         4.5950    -7.0949    92.8778 C.3        1          -0.0468
     35 C25         5.7329    -7.5943    93.7397 C.3        1           0.1143
     36 C26         7.5079   -11.4380    96.5327 C.ar       1          -0.1306
     37 C27         8.3630   -12.0348    97.4416 C.ar       1           0.0910
     38 F2          8.6317   -13.3555    97.3498 F          1          -0.1200
     39 H2          9.1246    -9.3352    99.3257 H          1           0.1568
     40 H3          7.6113    -8.2669    97.7058 H          1           0.1456
     41 H4          6.3103    -9.8197    94.7990 H          1           0.4115
     42 H5          3.4581    -6.5067    95.3035 H          1           0.0928
     43 H6          4.5704    -6.1711    96.6165 H          1           0.0953
     44 H7          4.4859    -4.1439    95.5879 H          1           0.1284
     45 H8          5.8934    -4.8566    94.7602 H          1           0.0948
     46 H9          3.0378    -5.1023    93.7132 H          1           0.1284
     47 H10         4.1286    -3.7908    93.2296 H          1           0.1395
     48 H11         2.9934    -5.9804    91.3202 H          1           0.1338
     49 H12         3.7297    -4.3642    91.2019 H          1           0.1305
     50 H13         5.7370    -5.3567    90.1369 H          1           0.0872
     51 H14         5.0007    -6.9730    90.2552 H          1           0.0890
     52 H15         3.1132    -6.2172    88.8359 H          1           0.0761
     53 H16         3.8494    -4.6009    88.7175 H          1           0.0750
     54 H17         4.3870    -5.9720    86.7226 H          1           0.0706
     55 H18         5.8568    -5.5933    87.6525 H          1           0.0714
     56 H19         5.8178    -7.9805    86.9829 H          1           0.0729
     57 H20         5.7324    -7.8118    88.7529 H          1           0.0725
     58 H21         3.2683    -8.0722    88.6588 H          1           0.0688
     59 H22         3.3536    -8.2408    86.8889 H          1           0.0690
     60 H23         4.2883   -10.3980    87.1897 H          1           0.4028
     61 H24         5.4201   -12.2396    88.9680 H          1           0.1314
     62 H25         2.6895   -12.2023    90.3605 H          1           0.1442
     63 H26         2.4823   -14.3277    91.7372 H          1           0.1462
     64 H27         5.7985   -16.5141    88.8034 H          1           0.1502
     65 H28         5.3396   -14.1134    88.5393 H          1           0.1473
     66 H29         3.6547    -7.3063    93.3868 H          1           0.1311
     67 H30         4.6054    -7.6461    91.9374 H          1           0.1466
     68 H31         6.6239    -6.9900    93.5688 H          1           0.1033
     69 H32         5.9439    -8.6378    93.5061 H          1           0.1342
     70 H33         7.0542   -12.0275    95.7497 H          1           0.1591
@<TRIPOS>BOND
     1    1    2 1
     2    2   37 ar
     3    2    3 ar
     4    3    4 ar
     5    3   39 1
     6    4    5 ar
     7    4   40 1
     8    5    6 1
     9    5   36 ar
    10    6    7 am
    11    6   41 1
    12    7    8 2
    13    7    9 am
    14    9   35 1
    15    9   10 1
    16   10   11 1
    17   10   42 1
    18   10   43 1
    19   11   12 1
    20   11   44 1
    21   11   45 1
    22   12   13 1
    23   12   46 1
    24   12   47 1
    25   13   14 1
    26   13   15 1
    27   13   34 1
    28   15   16 1
    29   15   48 1
    30   15   49 1
    31   16   17 1
    32   16   50 1
    33   16   51 1
    34   17   18 1
    35   17   52 1
    36   17   53 1
    37   18   19 1
    38   18   54 1
    39   18   55 1
    40   19   20 1
    41   19   56 1
    42   19   57 1
    43   20   21 1
    44   20   58 1
    45   20   59 1
    46   21   22 am
    47   21   60 1
    48   22   23 2
    49   22   24 1
    50   24   25 2
    51   24   61 1
    52   25   26 1
    53   25   62 1
    54   26   33 ar
    55   26   27 ar
    56   27   28 ar
    57   27   63 1
    58   28   29 1
    59   28   30 ar
    60   30   31 1
    61   30   32 ar
    62   32   33 ar
    63   32   64 1
    64   33   65 1
    65   34   35 1
    66   34   66 1
    67   34   67 1
    68   35   68 1
    69   35   69 1
    70   36   37 ar
    71   36   70 1
    72   37   38 1
##########                 Name:              T524913
##########          Protonation:                   11
##########               SMILES:   Cc1c2c(=O)cc([nH]c2n(n1)c3ccc(cc3)Cl)C[NH+]4CCN(CC4)c5cccc(c5)Cl
##########            Long Name:   phenyl)piperazin-1-ium-1-yl]methyl]-3-methyl-7H-pyrazolo[3,4-b]pyridin-4-one
##########          FlexRecCode: 1
##########               Number:                  158
##########   Ligand Source File: /raidb/db2/rgc/tcams/tcams-0000016.db2.gz
##########           GlobalRank: 296
##########                 Rank:                    1
##########               Setnum:                   30
##########             Matchnum:                 4685
##########                Cloud:                    1
##########        Electrostatic:           -37.549942
##########        Van der Waals:           -32.412685
##########  Ligand Polar Desolv:             9.374667
########## Ligand Apolar Desolv:            -4.567684
##########      Internal Energy:             0.000000
##########      Receptor Energy: 0.0
########## Receptor Desolvation:             0.000000
########## Receptor Hydrophobic:             0.000000
##########         Total Energy: -65.16
##########        Ligand Charge:             1.000000
##########            Arbitrary:    +999.9990
##########     heavy atom count:   32
##########           pose count:    1
##########        Ligand Energy:             0.000000
# num electro vdwattr vdwrepu polsolv apolsol rdesolv rhydroe totalscore fullpol fullapo
#   1    0.12   -0.73    0.14   -0.11   -0.05    0.00    0.00      -0.63   -0.41   -0.20
#   2   -0.37   -1.25    0.39    0.17   -0.21    0.00    0.00      -1.26    0.65   -0.80
#   3    0.74   -1.23    0.39   -0.62    0.30    0.00    0.00      -0.43   -2.41    1.16
#   4    2.28   -1.23    0.26   -1.15    0.19    0.00    0.00       0.35   -4.22    0.71
#   5   -6.23   -1.41    0.30    2.00   -0.61    0.00    0.00      -5.95    6.73   -2.05
#   6    0.89   -1.34    0.48   -1.19   -0.12    0.00    0.00      -1.29   -4.26   -0.44
#   7   -2.54   -1.82    2.00    1.22   -0.08    0.00    0.00      -1.22    4.77   -0.31
#   8    1.03   -1.26    0.74   -0.74    0.11    0.00    0.00      -0.12   -3.00    0.44
#   9    3.48   -1.35    0.49   -1.67   -0.12    0.00    0.00       0.84   -6.21   -0.44
#  10   -3.53   -1.55    0.43    1.95   -0.16    0.00    0.00      -2.87    6.54   -0.54
#  11   -1.27   -1.02    0.31    0.74   -0.12    0.00    0.00      -1.36    2.20   -0.37
#  12    8.70   -0.57    0.03   -3.34    0.06    0.00    0.00       4.90  -14.45    0.27
#  13   -6.02   -0.01    0.00    1.65    0.05    0.00    0.00      -4.33   18.37    0.51
#  14    0.62   -0.58    0.02   -0.15   -0.12    0.00    0.00      -0.20   -0.46   -0.38
#  15   -0.85   -0.99    0.28    0.83   -0.17    0.00    0.00      -0.90    2.38   -0.48
#  16    4.45   -1.34    0.38   -5.03    0.52    0.00    0.00      -1.03  -16.49    1.70
#  17   -0.89   -0.61    0.10    0.51   -0.12    0.00    0.00      -1.01    2.06   -0.47
#  18    0.55   -0.52    0.05    0.05   -0.10    0.00    0.00       0.04    0.19   -0.40
#  19   -1.49   -1.39    0.19    1.68   -0.25    0.00    0.00      -1.25    4.76   -0.70
#  20    2.34   -1.40    0.14   -1.38   -0.19    0.00    0.00      -0.49   -3.17   -0.44
#  21    0.78   -1.75    0.32   -0.52   -0.24    0.00    0.00      -1.42   -1.01   -0.47
#  22    1.47   -1.84    0.65   -0.97   -0.22    0.00    0.00      -0.91   -2.05   -0.46
#  23   -0.07   -1.70    0.35   -0.13   -0.13    0.00    0.00      -1.68   -0.30   -0.29
#  24    0.40   -3.91    1.05   -0.52   -0.53    0.00    0.00      -3.53   -0.96   -0.98
#  25    0.49   -1.91    0.46   -1.13   -0.16    0.00    0.00      -2.25   -3.00   -0.42
#  26   21.21   -2.38    1.41   -4.69    0.29    0.00    0.00      15.83  -14.98    0.91
#  27   -2.70   -1.19    0.26    0.48   -0.18    0.00    0.00      -3.33    1.82   -0.68
#  28    3.56   -1.07    0.21   -0.47   -0.10    0.00    0.00       2.12   -1.89   -0.42
#  29    1.97   -0.99    0.18   -0.29   -0.12    0.00    0.00       0.75   -1.12   -0.46
#  30    0.76   -0.88    0.08   -0.24   -0.09    0.00    0.00      -0.38   -0.77   -0.29
#  31    0.81   -1.98    0.34   -0.32   -0.32    0.00    0.00      -1.47   -0.97   -0.98
#  32    1.90   -1.10    0.10   -0.43   -0.17    0.00    0.00       0.29   -1.20   -0.46
#  33    1.22   -1.35    0.36   -0.45   -0.15    0.00    0.00      -0.37   -1.38   -0.45
#  34   -0.12   -0.23    0.04    0.08   -0.06    0.00    0.00      -0.29    0.39   -0.28
#  35   -0.11   -0.08    0.00    0.03   -0.02    0.00    0.00      -0.18    0.42   -0.28
#  36   -0.09   -0.38    0.11    0.08   -0.08    0.00    0.00      -0.37    0.26   -0.26
#  37   -2.87   -0.17    0.02    0.85   -0.04    0.00    0.00      -2.22    5.41   -0.27
#  38   -8.34   -1.14    3.46    3.42   -0.09    0.00    0.00      -2.69   10.95   -0.28
#  39   -5.39   -0.25    0.02    2.38   -0.07    0.00    0.00      -3.30    9.20   -0.26
#  40   -3.64   -0.22    0.02    1.19   -0.06    0.00    0.00      -2.71    5.96   -0.28
#  41   -3.16   -0.18    0.01    0.84   -0.04    0.00    0.00      -2.54    4.76   -0.23
#  42   -1.30   -0.35    0.06    0.86   -0.07    0.00    0.00      -0.80    2.50   -0.20
#  43    0.06   -0.63    0.89    0.85   -0.08    0.00    0.00       1.08    3.12   -0.28
#  44   -1.36   -0.16    0.01    0.43   -0.03    0.00    0.00      -1.10    2.79   -0.19
#  45   -0.05   -0.34    0.18    0.72   -0.05    0.00    0.00       0.46    3.88   -0.28
#  46   -3.61   -0.13    0.01    1.16   -0.03    0.00    0.00      -2.60    9.56   -0.28
#  47   -4.48   -0.27    0.06    1.35   -0.06    0.00    0.00      -3.39    5.99   -0.28
#  48   -2.07   -0.27    0.02    0.93   -0.05    0.00    0.00      -1.44    3.42   -0.20
#  49   -2.65   -0.38    0.04    0.76   -0.14    0.00    0.00      -2.36    1.57   -0.28
#  50   -1.43   -0.35    0.07    0.18   -0.11    0.00    0.00      -1.64    0.48   -0.28
#  51    0.33   -0.67    0.46    1.00   -0.06    0.00    0.00       1.05    3.08   -0.20
#  52  -19.31   -0.07    0.01    4.16    0.12    0.00    0.00     -15.10   15.30    0.43
#  53   -3.48   -0.18    0.03    0.90   -0.04    0.00    0.00      -2.77    5.55   -0.22
#  54   -3.17   -0.19    0.02    0.83   -0.05    0.00    0.00      -2.56    4.40   -0.28
#  55   -4.37   -0.32    0.06    0.44   -0.09    0.00    0.00      -4.29    1.40   -0.28
#  56   -0.74   -0.32    0.08    0.21   -0.07    0.00    0.00      -0.84    0.89   -0.28

@<TRIPOS>MOLECULE
          T524913        11
   56    60     0     0     0



@<TRIPOS>ATOM
      1 C1          1.4502    -5.8055    87.1770 C.3        1          -0.0866
      2 C2          2.7391    -5.7404    87.9551 C.2        1           0.1687
      3 N1          3.9402    -5.8065    87.4511 N.2        1          -0.2576
      4 N2          4.8822    -5.7103    88.4828 N.pl3      1          -0.3190
      5 C3          4.2152    -5.5806    89.6593 C.2        1           0.3410
      6 C4          2.8539    -5.5913    89.3524 C.2        1          -0.3091
      7 C5          1.8868    -5.4602    90.4468 C.2        1           0.4351
      8 O1          0.6850    -5.4672    90.2303 O.2        1          -0.4610
      9 C6          2.3917    -5.3258    91.7630 C.2        1          -0.2070
     10 C7          3.7239    -5.3218    91.9724 C.2        1           0.1169
     11 C8          4.2387    -5.1781    93.3814 C.3        1           0.0357
     12 N3          4.3870    -6.5084    93.9866 N.4        1          -0.3877
     13 H1          3.6078    -7.0889    93.7149 H          1           0.4174
     14 C9          4.4121    -6.3788    95.4490 C.3        1          -0.0301
     15 C10         4.4514    -7.7730    96.0836 C.3        1           0.1018
     16 N4          5.5928    -8.5100    95.5198 N.pl3      1          -0.6423
     17 C11         5.7362    -8.5519    94.0563 C.3        1           0.0984
     18 C12         5.6373    -7.1201    93.5190 C.3        1          -0.0239
     19 C13         6.5144    -9.1516    96.3504 C.ar       1           0.2089
     20 C14         7.2432    -8.4184    97.2786 C.ar       1          -0.1826
     21 C15         8.1538    -9.0551    98.0986 C.ar       1          -0.0555
     22 C16         8.3412   -10.4214    97.9969 C.ar       1          -0.1468
     23 C17         7.6177   -11.1551    97.0733 C.ar       1           0.0114
     24 Cl1         7.8563   -12.8702    96.9493 Cl         1          -0.0528
     25 C18         6.7001   -10.5244    96.2539 C.ar       1          -0.1806
     26 N5          4.6156    -5.4503    90.9595 N.pl3      1          -0.5961
     27 C19         6.2751    -5.7432    88.3283 C.ar       1           0.1415
     28 C20         7.0750    -6.2564    89.3403 C.ar       1          -0.1374
     29 C21         8.4471    -6.2876    89.1858 C.ar       1          -0.0830
     30 C22         9.0247    -5.8076    88.0228 C.ar       1          -0.0325
     31 Cl2        10.7497    -5.8475    87.8323 Cl         1          -0.0410
     32 C23         8.2294    -5.2958    87.0131 C.ar       1          -0.0792
     33 C24         6.8565    -5.2677    87.1606 C.ar       1          -0.0856
     34 H2          1.6717    -5.9231    86.1162 H          1           0.0931
     35 H3          0.8604    -6.6549    87.5213 H          1           0.0856
     36 H4          0.8861    -4.8854    87.3304 H          1           0.0966
     37 H5          1.7121    -5.2264    92.5965 H          1           0.1709
     38 H6          5.2062    -4.6763    93.3652 H          1           0.1558
     39 H7          3.5336    -4.5888    93.9674 H          1           0.1687
     40 H8          5.2971    -5.8178    95.7491 H          1           0.1437
     41 H9          3.5177    -5.8526    95.7826 H          1           0.1420
     42 H10         4.5721    -7.6807    97.1630 H          1           0.1317
     43 H11         3.5259    -8.3035    95.8596 H          1           0.0885
     44 H12         6.7064    -8.9746    93.7953 H          1           0.1309
     45 H13         4.9406    -9.1611    93.6275 H          1           0.0904
     46 H14         5.6466    -7.1406    92.4292 H          1           0.1462
     47 H15         6.4846    -6.5361    93.8788 H          1           0.1420
     48 H16         7.0979    -7.3512    97.3586 H          1           0.1298
     49 H17         8.7205    -8.4851    98.8200 H          1           0.1398
     50 H18         9.0541   -10.9168    98.6395 H          1           0.1387
     51 H19         6.1320   -11.0978    95.5364 H          1           0.1338
     52 H20         5.5642    -5.4402    91.1622 H          1           0.4101
     53 H21         6.6248    -6.6306    90.2480 H          1           0.1285
     54 H22         9.0698    -6.6867    89.9727 H          1           0.1495
     55 H23         8.6825    -4.9216    86.1068 H          1           0.1530
     56 H24         6.2360    -4.8720    86.3701 H          1           0.1512
@<TRIPOS>BOND
     1    1    2 1
     2    1   34 1
     3    1   35 1
     4    1   36 1
     5    2    6 1
     6    2    3 2
     7    3    4 1
     8    4    5 1
     9    4   27 1
    10    5   26 1
    11    5    6 2
    12    6    7 1
    13    7    8 2
    14    7    9 1
    15    9   10 2
    16    9   37 1
    17   10   11 1
    18   10   26 1
    19   11   12 1
    20   11   38 1
    21   11   39 1
    22   12   13 1
    23   12   18 1
    24   12   14 1
    25   14   15 1
    26   14   40 1
    27   14   41 1
    28   15   16 1
    29   15   42 1
    30   15   43 1
    31   16   17 1
    32   16   19 1
    33   17   18 1
    34   17   44 1
    35   17   45 1
    36   18   46 1
    37   18   47 1
    38   19   25 ar
    39   19   20 ar
    40   20   21 ar
    41   20   48 1
    42   21   22 ar
    43   21   49 1
    44   22   23 ar
    45   22   50 1
    46   23   24 1
    47   23   25 ar
    48   25   51 1
    49   26   52 1
    50   27   33 ar
    51   27   28 ar
    52   28   29 ar
    53   28   53 1
    54   29   30 ar
    55   29   54 1
    56   30   31 1
    57   30   32 ar
    58   32   33 ar
    59   32   55 1
    60   33   56 1
##########                 Name:              T540593
##########          Protonation:                   72
##########               SMILES:   C[C@@H]1CN(C[C@@H]([NH2+]1)C)c2cc[nH+]c3c2cc(cc3)Sc4ccc(cc4)Oc5ccccc5
##########            Long Name:   3,5-dimethylpiperazin-4-ium-1-yl]-6-(4-phenoxyphenyl)sulfanyl-quinolin-1-ium
##########          FlexRecCode: 1
##########               Number:                  332
##########   Ligand Source File: /raidb/db2/rgc/tcams/tcams-0001995.db2.gz
##########           GlobalRank: 296
##########                 Rank:                    1
##########               Setnum:                  308
##########             Matchnum:                 1690
##########                Cloud:                    1
##########        Electrostatic:           -32.337982
##########        Van der Waals:           -29.623142
##########  Ligand Polar Desolv:             1.162347
########## Ligand Apolar Desolv:            -4.356727
##########      Internal Energy:             0.000000
##########      Receptor Energy: 0.0
########## Receptor Desolvation:             0.000000
########## Receptor Hydrophobic:             0.000000
##########         Total Energy: -65.16
##########        Ligand Charge:             2.000000
##########            Arbitrary:    +999.9990
##########     heavy atom count:   32
##########           pose count:    1
##########        Ligand Energy:             0.000000
# num electro vdwattr vdwrepu polsolv apolsol rdesolv rhydroe totalscore fullpol fullapo
#   1    2.83   -0.86    0.18   -2.41   -0.06    0.00    0.00      -0.32   -7.31   -0.19
#   2   -0.20   -0.40    0.02    0.61   -0.06    0.00    0.00      -0.03    2.80   -0.29
#   3   -1.66   -0.95    0.32    1.22   -0.12    0.00    0.00      -1.18    4.40   -0.44
#   4   13.06   -0.80    0.08   -6.28    0.27    0.00    0.00       6.33  -27.24    1.17
#   5   -2.97   -0.58    0.10    0.97   -0.10    0.00    0.00      -2.57    4.40   -0.44
#   6   -0.26   -0.27    0.01    0.45   -0.05    0.00    0.00      -0.12    2.78   -0.29
#   7    2.91   -0.48    0.07   -1.50   -0.04    0.00    0.00       0.96   -7.31   -0.19
#   8    9.45   -0.46    0.02   -4.22    0.11    0.00    0.00       4.91  -21.76    0.57
#   9   -6.14   -0.01    0.00    1.25    0.03    0.00    0.00      -4.86   21.08    0.56
#  10  -11.41   -0.02    0.00    3.62    0.10    0.00    0.00      -7.70   19.35    0.56
#  11   -3.54   -0.55    0.03    2.61   -0.11    0.00    0.00      -1.56   12.56   -0.55
#  12    1.05   -0.80    0.09   -0.75   -0.10    0.00    0.00      -0.50   -3.10   -0.40
#  13    3.22   -1.95    0.85   -0.56   -0.13    0.00    0.00       1.44   -1.82   -0.42
#  14    2.45   -1.63    0.43   -0.94   -0.09    0.00    0.00       0.22   -2.88   -0.29
#  15   -3.68   -4.35    1.91   -1.23   -0.37    0.00    0.00      -7.71   -2.62   -0.78
#  16    5.54   -1.37    0.16   -1.14   -0.07    0.00    0.00       3.12   -2.79   -0.18
#  17    1.40   -1.49    0.34   -0.49   -0.18    0.00    0.00      -0.43   -1.21   -0.45
#  18    2.89   -1.21    0.13   -1.06   -0.18    0.00    0.00       0.57   -2.71   -0.46
#  19   -2.01   -1.35    0.17    0.94   -0.09    0.00    0.00      -2.34    2.29   -0.21
#  20    3.16   -1.52    0.23   -2.52    0.22    0.00    0.00      -0.43   -5.34    0.47
#  21   -0.90   -1.72    0.36    0.92   -0.12    0.00    0.00      -1.47    2.30   -0.31
#  22    1.54   -1.67    0.38   -1.17   -0.20    0.00    0.00      -1.12   -2.64   -0.46
#  23    0.72   -1.30    0.12   -0.72   -0.21    0.00    0.00      -1.39   -1.60   -0.47
#  24    0.95   -1.18    0.08   -1.09   -0.20    0.00    0.00      -1.44   -2.58   -0.47
#  25    0.19   -1.78    0.45   -0.59   -0.17    0.00    0.00      -1.89   -1.64   -0.47
#  26    0.49   -2.06    0.79   -1.22   -0.15    0.00    0.00      -2.16   -3.36   -0.42
#  27    2.53   -1.76    0.31   -1.22   -0.18    0.00    0.00      -0.32   -2.87   -0.42
#  28    1.04   -1.59    0.27   -0.47   -0.19    0.00    0.00      -0.95   -1.17   -0.46
#  29    0.28   -1.03    0.16   -0.67   -0.13    0.00    0.00      -1.39   -2.41   -0.45
#  30    1.27   -0.71    0.09   -0.69   -0.10    0.00    0.00      -0.13   -3.31   -0.46
#  31   -1.04   -0.59    0.07    0.82   -0.13    0.00    0.00      -0.86    4.49   -0.73
#  32    0.90   -0.32    0.01   -2.13    0.12    0.00    0.00      -1.42  -17.40    0.96
#  33   -0.73    0.00    0.00    1.06    0.03    0.00    0.00       0.36   19.10    0.58
#  34   -0.36   -0.24    0.00    1.10   -0.10    0.00    0.00       0.40   10.85   -0.96
#  35    0.63   -0.29    0.01   -0.79   -0.06    0.00    0.00      -0.50   -6.33   -0.47
#  36   -0.50   -0.32    0.09    0.73   -0.07    0.00    0.00      -0.06    3.16   -0.28
#  37   -3.00   -0.27    0.03    0.75   -0.08    0.00    0.00      -2.58    2.51   -0.28
#  38   -1.61   -0.40    0.20    0.58   -0.06    0.00    0.00      -1.30    2.56   -0.28
#  39   -1.04   -0.07    0.00    0.56   -0.02    0.00    0.00      -0.57    8.51   -0.28
#  40   -3.41   -0.97    1.86    0.97   -0.09    0.00    0.00      -1.65    2.94   -0.28
#  41   -0.49   -0.29    0.08    0.89   -0.05    0.00    0.00       0.14    4.52   -0.27
#  42   -3.77   -0.64    0.62    0.77   -0.08    0.00    0.00      -3.09    2.86   -0.28
#  43   -2.48   -0.09    0.00    0.39   -0.02    0.00    0.00      -2.20    4.55   -0.27
#  44   -1.51   -0.03    0.00    0.31   -0.01    0.00    0.00      -1.25    8.51   -0.28
#  45   -1.15   -0.08    0.00    0.21   -0.02    0.00    0.00      -1.04    2.53   -0.28
#  46   -1.97   -0.33    0.11    0.80   -0.07    0.00    0.00      -1.46    3.16   -0.28
#  47   -1.21   -0.15    0.03    0.34   -0.04    0.00    0.00      -1.03    2.53   -0.28
#  48   -7.70   -1.15    2.23    1.54   -0.06    0.00    0.00      -5.14    4.93   -0.20
#  49   -6.68   -0.77    1.48    1.17   -0.09    0.00    0.00      -4.90    3.55   -0.28
#  50   -2.98   -0.37    0.11    0.99   -0.07    0.00    0.00      -2.34    3.72   -0.28
#  51   -2.08   -0.34    0.05    1.35   -0.10    0.00    0.00      -1.13    3.64   -0.28
#  52   -1.37   -0.26    0.02    0.74   -0.09    0.00    0.00      -0.96    2.43   -0.28
#  53   -1.27   -0.22    0.01    0.37   -0.07    0.00    0.00      -1.18    1.51   -0.28
#  54    0.11   -0.54    0.29    0.47   -0.08    0.00    0.00       0.26    1.71   -0.28
#  55    0.18   -0.73    1.24    0.67   -0.06    0.00    0.00       1.29    2.38   -0.22
#  56   -2.18   -0.51    0.14    1.57   -0.12    0.00    0.00      -1.11    3.59   -0.28
#  57   -3.72   -0.34    0.04    1.13   -0.09    0.00    0.00      -2.97    3.57   -0.28
#  58   -3.64   -0.18    0.01    0.52   -0.05    0.00    0.00      -3.35    2.70   -0.28
#  59   -1.72   -0.11    0.00    0.67   -0.03    0.00    0.00      -1.19    6.11   -0.28
#  60   -0.28   -0.03    0.00    0.48   -0.01    0.00    0.00       0.16   13.36   -0.28
#  61   -0.44   -0.04    0.00    0.45   -0.01    0.00    0.00      -0.04   11.35   -0.28

@<TRIPOS>MOLECULE
          T540593        72
   61    65     0     0     0



@<TRIPOS>ATOM
      1 C1          7.6064    -5.5431    86.2880 C.3        1          -0.1863
      2 C2          7.0123    -6.3590    87.4380 C.3        1           0.0153
      3 C3          5.8883    -5.5590    88.1046 C.3        1           0.1181
      4 N1          5.4216    -6.3042    89.2840 N.pl3      1          -0.6896
      5 C4          6.4273    -6.7760    90.2484 C.3        1           0.1180
      6 C5          7.5258    -7.5186    89.4806 C.3        1           0.0155
      7 C6          8.6513    -7.9022    90.4435 C.3        1          -0.1865
      8 N2          8.0594    -6.6471    88.4261 N.4        1          -0.5058
      9 H1          8.8329    -7.1075    87.9703 H          1           0.4351
     10 H2          8.3800    -5.7826    88.8362 H          1           0.4273
     11 C7          4.0713    -6.5546    89.4814 C.ar       1           0.3187
     12 C8          3.4013    -6.0786    90.6345 C.ar       1          -0.0648
     13 C9          4.0766    -5.3397    91.6146 C.ar       1          -0.0970
     14 C10         3.3873    -4.8936    92.7231 C.ar       1          -0.0806
     15 S1          4.2291    -3.9636    93.9605 S.3        1           0.0895
     16 C11         4.8209    -5.1856    95.0834 C.ar       1          -0.1773
     17 C12         6.0753    -5.7528    94.8958 C.ar       1          -0.0431
     18 C13         6.5381    -6.7103    95.7761 C.ar       1          -0.1345
     19 C14         5.7510    -7.1064    96.8480 C.ar       1           0.1301
     20 O1          6.2079    -8.0491    97.7147 O.3        1          -0.2696
     21 C15         6.7959    -9.1597    97.1976 C.ar       1           0.1057
     22 C16         7.9763    -9.6406    97.7462 C.ar       1          -0.1390
     23 C17         8.5716   -10.7700    97.2188 C.ar       1          -0.0786
     24 C18         7.9927   -11.4209    96.1451 C.ar       1          -0.1365
     25 C19         6.8168   -10.9435    95.5962 C.ar       1          -0.0784
     26 C20         6.2140    -9.8181    96.1236 C.ar       1          -0.1935
     27 C21         4.4982    -6.5406    97.0363 C.ar       1          -0.1453
     28 C22         4.0359    -5.5787    96.1603 C.ar       1          -0.0431
     29 C23         2.0241    -5.1740    92.8721 C.ar       1          -0.0142
     30 C24         1.3506    -5.8893    91.9326 C.ar       1          -0.1135
     31 C25         2.0229    -6.3594    90.7907 C.ar       1           0.1330
     32 N3          1.3755    -7.0648    89.8552 N.ar       1          -0.4463
     33 H3          0.4308    -7.2507    89.9731 H          1           0.4536
     34 C26         1.9857    -7.5111    88.7824 C.ar       1           0.2084
     35 C27         3.3348    -7.2732    88.5538 C.ar       1          -0.1767
     36 H4          6.8290    -5.3293    85.5545 H          1           0.0931
     37 H5          8.0072    -4.6067    86.6762 H          1           0.1112
     38 H6          8.4064    -6.1121    85.8143 H          1           0.0867
     39 H7          6.6112    -7.2954    87.0499 H          1           0.1446
     40 H8          6.2659    -4.5842    88.4132 H          1           0.0935
     41 H9          5.0642    -5.4305    87.4029 H          1           0.1228
     42 H10         6.8593    -5.9242    90.7735 H          1           0.0937
     43 H11         5.9596    -7.4523    90.9640 H          1           0.1226
     44 H12         7.1092    -8.4200    89.0310 H          1           0.1445
     45 H13         9.4326    -8.4305    89.8969 H          1           0.1110
     46 H14         9.0682    -7.0008    90.8927 H          1           0.0930
     47 H15         8.2549    -8.5487    91.2265 H          1           0.0874
     48 H16         5.1284    -5.1211    91.5034 H          1           0.1523
     49 H17         6.6879    -5.4450    94.0614 H          1           0.1453
     50 H18         7.5130    -7.1516    95.6303 H          1           0.1456
     51 H19         8.4293    -9.1322    98.5845 H          1           0.1322
     52 H20         9.4903   -11.1447    97.6455 H          1           0.1384
     53 H21         8.4601   -12.3036    95.7340 H          1           0.1336
     54 H22         6.3669   -11.4536    94.7572 H          1           0.1319
     55 H23         5.2931    -9.4482    95.6974 H          1           0.1245
     56 H24         3.8861    -6.8497    97.8706 H          1           0.1443
     57 H25         3.0625    -5.1353    96.3095 H          1           0.1459
     58 H26         1.5000    -4.8172    93.7464 H          1           0.1660
     59 H27         0.2988    -6.0967    92.0635 H          1           0.1686
     60 H28         1.4220    -8.0760    88.0549 H          1           0.2162
     61 H29         3.8083    -7.6498    87.6593 H          1           0.1830
@<TRIPOS>BOND
     1    1    2 1
     2    1   36 1
     3    1   37 1
     4    1   38 1
     5    2    8 1
     6    2    3 1
     7    2   39 1
     8    3    4 1
     9    3   40 1
    10    3   41 1
    11    4    5 1
    12    4   11 1
    13    5    6 1
    14    5   42 1
    15    5   43 1
    16    6    7 1
    17    6    8 1
    18    6   44 1
    19    7   45 1
    20    7   46 1
    21    7   47 1
    22    8    9 1
    23    8   10 1
    24   11   35 ar
    25   11   12 ar
    26   12   31 ar
    27   12   13 ar
    28   13   14 ar
    29   13   48 1
    30   14   15 1
    31   14   29 ar
    32   15   16 1
    33   16   28 ar
    34   16   17 ar
    35   17   18 ar
    36   17   49 1
    37   18   19 ar
    38   18   50 1
    39   19   20 1
    40   19   27 ar
    41   20   21 1
    42   21   26 ar
    43   21   22 ar
    44   22   23 ar
    45   22   51 1
    46   23   24 ar
    47   23   52 1
    48   24   25 ar
    49   24   53 1
    50   25   26 ar
    51   25   54 1
    52   26   55 1
    53   27   28 ar
    54   27   56 1
    55   28   57 1
    56   29   30 ar
    57   29   58 1
    58   30   31 ar
    59   30   59 1
    60   31   32 ar
    61   32   33 1
    62   32   34 ar
    63   34   35 ar
    64   34   60 1
    65   35   61 1
##########                 Name:              T525354
##########          Protonation:                   95
##########               SMILES:   c1ccc(cc1)[C@@H](C[NH3+])NC(=O)c2ccc(s2)c3c[nH]c4c3cccn4
##########            Long Name:   [[5-(1H-pyrrolo[2,3-b]pyridin-3-yl)thiophene-2-carbonyl]amino]ethyl]ammonium
##########          FlexRecCode: 1
##########               Number:                   70
##########   Ligand Source File: /raidb/db2/rgc/tcams/tcams-0000048.db2.gz
##########           GlobalRank: 298
##########                 Rank:                    1
##########               Setnum:                  176
##########             Matchnum:                  217
##########                Cloud:                    1
##########        Electrostatic:           -52.613388
##########        Van der Waals:           -22.545868
##########  Ligand Polar Desolv:            12.839762
########## Ligand Apolar Desolv:            -2.830092
##########      Internal Energy:             0.000000
##########      Receptor Energy: 0.0
########## Receptor Desolvation:             0.000000
########## Receptor Hydrophobic:             0.000000
##########         Total Energy: -65.15
##########        Ligand Charge:             1.000000
##########            Arbitrary:    +999.9990
##########     heavy atom count:   26
##########           pose count:    1
##########        Ligand Energy:             0.000000
# num electro vdwattr vdwrepu polsolv apolsol rdesolv rhydroe totalscore fullpol fullapo
#   1   32.53   -4.83    9.54   -8.74    0.31    0.00    0.00      28.80  -21.20    0.74
#   2  -34.83   -0.62    0.78    9.09    0.30    0.00    0.00     -25.28   17.94    0.60
#   3  -22.30   -0.07    0.01    4.27    0.14    0.00    0.00     -17.94   15.05    0.51
#   4  -17.24   -0.05    0.00    5.45    0.17    0.00    0.00     -11.67   13.78    0.43
#   5    0.56   -1.28    0.45    0.06   -0.15    0.00    0.00      -0.35    0.20   -0.47
#   6   -3.06   -0.40    0.02    0.90   -0.05    0.00    0.00      -2.58    4.27   -0.25
#   7   13.66   -0.56    0.02   -3.42    0.41    0.00    0.00      10.09  -16.61    1.97
#   8  -11.10   -0.62    0.04    2.67   -0.11    0.00    0.00      -9.12   12.79   -0.52
#   9   10.75   -0.49    0.03   -2.17    0.07    0.00    0.00       8.19  -10.85    0.36
#  10    4.21   -0.81    0.07   -1.09   -0.08    0.00    0.00       2.30   -4.15   -0.32
#  11    0.43   -0.97    0.06   -0.40   -0.16    0.00    0.00      -1.04   -1.14   -0.47
#  12    2.48   -1.28    0.11   -0.91   -0.19    0.00    0.00       0.21   -2.20   -0.47
#  13   -0.11   -1.25    0.11   -0.30   -0.12    0.00    0.00      -1.67   -0.81   -0.32
#  14   -0.91   -1.78    0.33    0.62   -0.23    0.00    0.00      -1.98    2.15   -0.80
#  15    1.43   -1.58    0.30   -0.56   -0.18    0.00    0.00      -0.59   -1.34   -0.44
#  16   -2.10   -2.04    0.50    0.68   -0.54    0.00    0.00      -3.49    1.26   -1.00
#  17    7.98   -2.57    1.01   -2.35    0.65    0.00    0.00       4.71   -4.24    1.17
#  18   -2.52   -2.02    0.55    0.45   -1.28    0.00    0.00      -4.81    0.82   -2.31
#  19    2.36   -3.02    0.89   -1.00    1.25    0.00    0.00       0.48   -1.62    2.03
#  20   -0.96   -3.78    2.38    0.32   -0.61    0.00    0.00      -2.65    0.51   -0.98
#  21    1.95   -2.31    0.59   -0.89   -0.26    0.00    0.00      -0.92   -1.63   -0.48
#  22    0.21   -1.59    0.21   -0.18   -0.23    0.00    0.00      -1.57   -0.37   -0.48
#  23    1.00   -1.56    0.29   -0.50   -0.21    0.00    0.00      -0.98   -1.07   -0.44
#  24    1.99   -0.80    0.08   -0.43   -0.08    0.00    0.00       0.76   -1.76   -0.35
#  25    2.47   -1.07    0.09   -0.65   -0.14    0.00    0.00       0.70   -1.96   -0.42
#  26    2.67   -1.58    0.27   -0.87   -0.19    0.00    0.00       0.30   -2.12   -0.47
#  27    2.16   -1.26    0.11   -0.78   -0.20    0.00    0.00       0.03   -1.87   -0.47
#  28    1.69   -1.10    0.14   -0.68   -0.15    0.00    0.00      -0.09   -2.06   -0.47
#  29    0.96   -0.86    0.16   -0.44   -0.11    0.00    0.00      -0.30   -1.84   -0.45
#  30   -3.35   -0.71    0.65    1.84   -0.09    0.00    0.00      -1.66    5.46   -0.28
#  31   -4.70   -0.28    0.06    1.40   -0.06    0.00    0.00      -3.57    6.37   -0.28
#  32   -1.36   -0.07    0.00    0.19   -0.02    0.00    0.00      -1.25    3.28   -0.26
#  33   -7.58   -0.01    0.00    0.89    0.04    0.00    0.00      -6.66    9.61    0.43
#  34   -3.09   -0.20    0.01    0.47   -0.05    0.00    0.00      -2.87    2.39   -0.28
#  35   -2.16   -0.34    0.05    0.68   -0.10    0.00    0.00      -1.87    1.88   -0.28
#  36   -3.76   -0.41    0.04    1.87   -0.14    0.00    0.00      -2.40    3.63   -0.28
#  37   -7.12   -0.07    0.01    2.12    0.32    0.00    0.00      -4.74    3.96    0.59
#  38   -0.62   -1.94    4.44    0.92   -0.17    0.00    0.00       2.63    1.52   -0.28
#  39   -2.55   -0.94    1.18    1.20   -0.14    0.00    0.00      -1.25    2.40   -0.28
#  40   -0.44   -0.34    0.05    0.66   -0.08    0.00    0.00      -0.14    2.29   -0.28
#  41   -3.07   -0.21    0.01    0.85   -0.05    0.00    0.00      -2.46    3.99   -0.24
#  42   -3.45   -0.69    0.69    0.64   -0.11    0.00    0.00      -2.91    1.68   -0.28
#  43   -3.24   -0.27    0.02    0.27   -0.08    0.00    0.00      -3.30    0.91   -0.28
#  44   -1.89   -0.25    0.04    0.33   -0.07    0.00    0.00      -1.84    1.30   -0.28
#  45   -0.60   -0.11    0.01    0.32   -0.03    0.00    0.00      -0.40    3.17   -0.28

@<TRIPOS>MOLECULE
          T525354        95
   45    48     0     0     0



@<TRIPOS>ATOM
      1 N1          4.4126    -4.2811    92.5134 N.4        1          -0.6341
      2 H1          4.9919    -3.6223    92.0149 H          1           0.4368
      3 H2          4.9848    -4.8225    93.1439 H          1           0.4425
      4 H3          3.7120    -3.7813    93.0403 H          1           0.4271
      5 C1          3.7557    -5.1792    91.5544 C.3        1          -0.0182
      6 C2          2.8772    -6.1780    92.3103 C.3        1           0.1716
      7 N2          3.5697    -6.6159    93.5249 N.am       1          -0.7339
      8 C3          4.7631    -7.2357    93.4339 C.2        1           0.6113
      9 O1          5.2656    -7.4316    92.3422 O.2        1          -0.5428
     10 C4          5.4542    -7.6725    94.6459 C.2        1          -0.2954
     11 C5          5.4111    -7.1238    95.9205 C.2        1          -0.0268
     12 C6          6.1480    -7.7069    96.9109 C.2        1          -0.1892
     13 C7          6.9111    -8.8248    96.6046 C.2        1           0.0114
     14 S1          6.5641    -9.0531    94.8684 S.3        1           0.1100
     15 C8          7.7812    -9.6229    97.4881 C.2        1          -0.1386
     16 C9          8.4609    -9.1785    98.5784 C.2        1           0.1343
     17 N3          9.1568   -10.2092    99.1380 N.pl3      1          -0.5662
     18 C10         8.9522   -11.3683    98.4255 C.ar       1           0.2874
     19 N4          9.4002   -12.6091    98.5696 N.ar       1          -0.4891
     20 C11         9.0543   -13.5697    97.7394 C.ar       1           0.1454
     21 C12         8.2032   -13.3334    96.6711 C.ar       1          -0.1866
     22 C13         7.7045   -12.0590    96.4707 C.ar       1          -0.0349
     23 C14         8.0800   -11.0593    97.3670 C.ar       1          -0.1309
     24 C15         1.5748    -5.5185    92.6847 C.ar       1          -0.1226
     25 C16         1.4598    -4.8504    93.8894 C.ar       1          -0.1104
     26 C17         0.2652    -4.2454    94.2328 C.ar       1          -0.1098
     27 C18        -0.8142    -4.3084    93.3715 C.ar       1          -0.0954
     28 C19        -0.6988    -4.9758    92.1664 C.ar       1          -0.1097
     29 C20         0.4972    -5.5771    91.8211 C.ar       1          -0.0947
     30 H4          3.1375    -4.5943    90.8734 H          1           0.1386
     31 H5          4.5125    -5.7191    90.9852 H          1           0.1514
     32 H6          2.6780    -7.0407    91.6746 H          1           0.1263
     33 H7          3.1694    -6.4597    94.3944 H          1           0.4152
     34 H8          4.8065    -6.2524    96.1243 H          1           0.1492
     35 H9          6.1377    -7.3055    97.9135 H          1           0.1515
     36 H10         8.4515    -8.1628    98.9456 H          1           0.1918
     37 H11         9.7170   -10.1356    99.9265 H          1           0.4309
     38 H12         9.4429   -14.5654    97.8937 H          1           0.1686
     39 H13         7.9325   -14.1364    96.0015 H          1           0.1441
     40 H14         7.0395   -11.8457    95.6469 H          1           0.1319
     41 H15         2.3030    -4.8011    94.5624 H          1           0.1216
     42 H16         0.1750    -3.7239    95.1742 H          1           0.1328
     43 H17        -1.7477    -3.8365    93.6400 H          1           0.1331
     44 H18        -1.5421    -5.0253    91.4935 H          1           0.1341
     45 H19         0.5885    -6.0954    90.8780 H          1           0.1304
@<TRIPOS>BOND
     1    1    2 1
     2    1    3 1
     3    1    4 1
     4    1    5 1
     5    5    6 1
     6    5   30 1
     7    5   31 1
     8    6    7 1
     9    6   24 1
    10    6   32 1
    11    7    8 am
    12    7   33 1
    13    8    9 2
    14    8   10 1
    15   10   14 1
    16   10   11 2
    17   11   12 1
    18   11   34 1
    19   12   13 2
    20   12   35 1
    21   13   14 1
    22   13   15 1
    23   15   23 1
    24   15   16 2
    25   16   17 1
    26   16   36 1
    27   17   18 1
    28   17   37 1
    29   18   23 ar
    30   18   19 ar
    31   19   20 ar
    32   20   21 ar
    33   20   38 1
    34   21   22 ar
    35   21   39 1
    36   22   23 ar
    37   22   40 1
    38   24   29 ar
    39   24   25 ar
    40   25   26 ar
    41   25   41 1
    42   26   27 ar
    43   26   42 1
    44   27   28 ar
    45   27   43 1
    46   28   29 ar
    47   28   44 1
    48   29   45 1
##########                 Name:              T540789
##########          Protonation:                   26
##########               SMILES:   COc1cc2c(nccc2[C@H](O)C[NH+]3CC[C@@H](CC3)[NH2+]C[C@H](O)Cc4ccccc4)cc1
##########            Long Name:   uinolyl)ethyl]piperidin-1-ium-4-yl]-[(2R)-2-hydroxy-3-phenyl-propyl]ammonium
##########          FlexRecCode: 1
##########               Number:                   15
##########   Ligand Source File: /raidb/db2/rgc/tcams/tcams-0002087.db2.gz
##########           GlobalRank: 298
##########                 Rank:                    1
##########               Setnum:                   11
##########             Matchnum:                 1267
##########                Cloud:                    1
##########        Electrostatic:           -52.175537
##########        Van der Waals:           -23.636654
##########  Ligand Polar Desolv:            11.307756
########## Ligand Apolar Desolv:            -0.647770
##########      Internal Energy:             0.000000
##########      Receptor Energy: 0.0
########## Receptor Desolvation:             0.000000
########## Receptor Hydrophobic:             0.000000
##########         Total Energy: -65.15
##########        Ligand Charge:             2.000000
##########            Arbitrary:    +999.9990
##########     heavy atom count:   32
##########           pose count:    1
##########        Ligand Energy:             0.000000
# num electro vdwattr vdwrepu polsolv apolsol rdesolv rhydroe totalscore fullpol fullapo
#   1   -0.04   -1.07    0.12    0.11    0.01    0.00    0.00      -0.86    0.25    0.03
#   2    0.77   -1.42    0.36   -2.44    0.34    0.00    0.00      -2.39   -6.75    0.93
#   3   -0.37   -1.22    0.18    0.58   -0.10    0.00    0.00      -0.93    1.85   -0.31
#   4    0.30   -1.47    0.43   -0.87   -0.13    0.00    0.00      -1.73   -2.97   -0.43
#   5    0.04   -1.13    0.31   -0.44   -0.10    0.00    0.00      -1.33   -1.95   -0.46
#   6   -0.14   -0.91    0.33    0.06   -0.14    0.00    0.00      -0.81    0.30   -0.73
#   7    0.44   -0.48    0.05   -1.20    0.30    0.00    0.00      -0.89   -7.86    1.99
#   8   -0.12   -0.45    0.03    0.23   -0.15    0.00    0.00      -0.46    1.46   -0.97
#   9    0.21   -0.69    0.08   -0.82   -0.09    0.00    0.00      -1.31   -4.05   -0.44
#  10    0.24   -0.97    0.32   -0.22   -0.08    0.00    0.00      -0.71   -1.02   -0.35
#  11   -0.69   -0.56    0.07    1.42   -0.03    0.00    0.00       0.21    5.67   -0.11
#  12   11.27   -1.54    0.72   -7.66    0.56    0.00    0.00       3.35  -21.70    1.58
#  13    0.11   -0.20    0.00   -0.13   -0.04    0.00    0.00      -0.26   -1.03   -0.32
#  14    4.58   -0.33    0.01   -2.84    0.04    0.00    0.00       1.46  -17.98    0.27
#  15   -7.44   -0.01    0.00    2.70    0.06    0.00    0.00      -4.69   23.55    0.49
#  16    0.03   -0.30    0.02   -0.03   -0.06    0.00    0.00      -0.34   -0.19   -0.38
#  17    3.21   -0.67    0.14   -2.11   -0.06    0.00    0.00       0.51   -8.76   -0.24
#  18   -0.28   -0.39    0.03    0.46   -0.05    0.00    0.00      -0.22    2.31   -0.23
#  19    3.61   -0.46    0.04   -2.04   -0.05    0.00    0.00       1.10   -9.17   -0.21
#  20    0.15   -0.27    0.01   -0.25   -0.06    0.00    0.00      -0.42   -1.63   -0.37
#  21   15.71   -1.24    0.61   -6.54    0.16    0.00    0.00       8.71  -25.84    0.63
#  22  -21.00   -0.09    0.02    7.14    0.16    0.00    0.00     -13.78   23.72    0.52
#  23  -13.21   -0.02    0.00    4.71    0.11    0.00    0.00      -8.41   24.34    0.56
#  24    1.13   -0.40    0.04   -0.08   -0.07    0.00    0.00       0.61   -0.41   -0.37
#  25   -2.21   -0.51    0.07    0.82   -0.03    0.00    0.00      -1.86    3.75   -0.13
#  26   22.61   -2.25    2.98   -6.53    0.47    0.00    0.00      17.29  -21.90    1.57
#  27    1.10   -0.49    0.07   -0.81   -0.04    0.00    0.00      -0.17   -4.00   -0.21
#  28    0.80   -1.16    0.41   -0.39   -0.09    0.00    0.00      -0.42   -1.52   -0.35
#  29    0.31   -1.61    0.83   -0.64   -0.11    0.00    0.00      -1.22   -2.50   -0.44
#  30    0.55   -1.27    0.24   -0.78   -0.14    0.00    0.00      -1.40   -2.63   -0.47
#  31    0.86   -1.21    0.13   -0.88   -0.16    0.00    0.00      -1.25   -2.64   -0.47
#  32    1.31   -1.17    0.09   -0.98   -0.17    0.00    0.00      -0.92   -2.68   -0.47
#  33    1.47   -0.98    0.09   -0.88   -0.14    0.00    0.00      -0.44   -2.76   -0.45
#  34    0.09   -1.33    1.09   -0.38   -0.09    0.00    0.00      -0.62   -1.71   -0.40
#  35    0.48   -1.37    0.53   -0.72   -0.12    0.00    0.00      -1.19   -2.60   -0.43
#  36   -0.25   -0.35    0.03    1.15   -0.11    0.00    0.00       0.48    3.00   -0.28
#  37   -0.16   -0.62    0.23    0.29   -0.11    0.00    0.00      -0.36    0.75   -0.27
#  38   -0.11   -0.23    0.03    0.24   -0.06    0.00    0.00      -0.14    1.16   -0.27
#  39   -0.25   -0.48    0.26    0.50   -0.05    0.00    0.00      -0.03    2.02   -0.22
#  40   -0.12   -0.21    0.05    0.09   -0.04    0.00    0.00      -0.23    0.55   -0.28
#  41   -0.10   -0.06    0.00    0.13   -0.01    0.00    0.00      -0.04    2.83   -0.28
#  42   -0.46   -0.14    0.01    1.15   -0.03    0.00    0.00       0.52    7.30   -0.22
#  43   -1.56   -0.24    0.03    1.78   -0.05    0.00    0.00      -0.03    6.91   -0.18
#  44  -14.33   -0.15    0.05    6.04    0.36    0.00    0.00      -8.03   16.92    1.00
#  45   -0.32   -0.04    0.00    0.35   -0.01    0.00    0.00      -0.03    7.48   -0.28
#  46   -0.28   -0.04    0.00    0.32   -0.01    0.00    0.00      -0.01    7.81   -0.28
#  47   -1.06   -0.04    0.00    0.35   -0.01    0.00    0.00      -0.77    8.18   -0.28
#  48   -1.25   -0.12    0.01    0.85   -0.03    0.00    0.00      -0.54    7.09   -0.28
#  49   -2.30   -0.28    0.10    1.27   -0.05    0.00    0.00      -1.26    6.64   -0.28
#  50   -2.89   -0.44    0.18    2.13   -0.08    0.00    0.00      -1.10    7.03   -0.28
#  51   -2.03   -0.04    0.00    0.46   -0.01    0.00    0.00      -1.62   10.61   -0.28
#  52   -2.20   -0.11    0.01    0.92   -0.03    0.00    0.00      -1.42    7.67   -0.22
#  53   -3.62   -0.32    0.08    1.82   -0.07    0.00    0.00      -2.11    7.24   -0.28
#  54   -2.45   -0.13    0.01    0.76   -0.03    0.00    0.00      -1.83    6.33   -0.22
#  55   -1.19   -0.05    0.00    0.46   -0.01    0.00    0.00      -0.79    8.96   -0.28
#  56   -1.80   -0.06    0.00    0.48   -0.01    0.00    0.00      -1.39    9.88   -0.21
#  57   -2.67   -0.12    0.01    1.12   -0.03    0.00    0.00      -1.70    9.10   -0.28
#  58   -3.12   -0.13    0.01    0.62   -0.04    0.00    0.00      -2.67    4.33   -0.28
#  59  -25.95   -0.38    0.56    5.03    0.39    0.00    0.00     -20.35   15.81    1.22
#  60   -1.19   -0.12    0.01    0.51   -0.03    0.00    0.00      -0.83    4.64   -0.28
#  61   -0.25   -0.19    0.05    0.54   -0.04    0.00    0.00       0.11    3.77   -0.28
#  62   -0.09   -0.32    0.16    0.66   -0.05    0.00    0.00       0.36    3.81   -0.28
#  63   -0.64   -0.19    0.02    0.23   -0.05    0.00    0.00      -0.64    1.24   -0.28
#  64   -1.18   -0.21    0.01    0.14   -0.06    0.00    0.00      -1.29    0.69   -0.28
#  65   -1.78   -0.24    0.01    0.41   -0.07    0.00    0.00      -1.67    1.55   -0.28
#  66   -2.09   -0.17    0.01    0.77   -0.05    0.00    0.00      -1.53    4.59   -0.28
#  67   -0.37   -0.35    0.17    2.18   -0.05    0.00    0.00       1.57    9.10   -0.22

@<TRIPOS>MOLECULE
          T540789        26
   67    70     0     0     0



@<TRIPOS>ATOM
      1 C1         10.7351   -10.1432    81.1485 C.3        1           0.0187
      2 O1         10.5687    -9.3902    82.3515 O.3        1          -0.3162
      3 C2         11.6921    -9.1048    83.0611 C.ar       1           0.1639
      4 C3         12.9349    -9.5438    82.5939 C.ar       1          -0.1771
      5 C4         14.0767    -9.2741    83.2813 C.ar       1          -0.0289
      6 C5         14.0146    -8.5430    84.4812 C.ar       1           0.0985
      7 N1         15.1222    -8.2640    85.1758 N.ar       1          -0.4350
      8 C6         15.0717    -7.5830    86.2947 C.ar       1           0.1195
      9 C7         13.8666    -7.1166    86.8157 C.ar       1          -0.1272
     10 C8         12.6970    -7.3665    86.1561 C.ar       1          -0.1070
     11 C9         11.3809    -6.8723    86.6989 C.3        1           0.1380
     12 O2         11.5920    -5.6646    87.4331 O.3        1          -0.5444
     13 C10        10.7802    -7.9329    87.6237 C.3        1          -0.0469
     14 N2          9.7880    -7.3064    88.5077 N.4        1          -0.3845
     15 H1         10.1292    -6.4061    88.8095 H          1           0.4313
     16 C11         9.5691    -8.1630    89.6794 C.3        1          -0.0026
     17 C12         8.5977    -7.4773    90.6427 C.3        1          -0.1700
     18 C13         7.2646    -7.2357    89.9287 C.3        1           0.0135
     19 C14         7.5156    -6.4038    88.6677 C.3        1          -0.1701
     20 C15         8.5266    -7.1308    87.7782 C.3        1          -0.0113
     21 N3          6.3530    -6.5097    90.8229 N.4        1          -0.5012
     22 H2          6.8687    -5.8060    91.3298 H          1           0.4416
     23 H3          5.6281    -6.0677    90.2775 H          1           0.4322
     24 C16         5.7457    -7.4513    91.7728 C.3        1          -0.0530
     25 C17         4.7962    -6.6950    92.7043 C.3        1           0.0884
     26 O3          5.5267    -5.6986    93.4223 O.3        1          -0.5466
     27 C18         4.1638    -7.6757    93.6936 C.3        1          -0.1029
     28 C19         5.2463    -8.3358    94.5082 C.ar       1          -0.1047
     29 C20         5.8271    -9.5091    94.0643 C.ar       1          -0.1013
     30 C21         6.8201   -10.1146    94.8114 C.ar       1          -0.1147
     31 C22         7.2327    -9.5465    96.0021 C.ar       1          -0.1065
     32 C23         6.6526    -8.3728    96.4457 C.ar       1          -0.1154
     33 C24         5.6626    -7.7650    95.6964 C.ar       1          -0.1170
     34 C25        12.7551    -8.0983    84.9547 C.ar       1          -0.0436
     35 C26        11.5950    -8.3878    84.2197 C.ar       1          -0.1877
     36 H4          9.7630   -10.3009    80.6812 H          1           0.1104
     37 H5         11.3828    -9.5957    80.4638 H          1           0.0660
     38 H6         11.1863   -11.1074    81.3828 H          1           0.0646
     39 H7         12.9887   -10.1058    81.6732 H          1           0.1479
     40 H8         15.0286    -9.6207    82.9070 H          1           0.1523
     41 H9         15.9888    -7.3781    86.8271 H          1           0.1715
     42 H10        13.8572    -6.5583    87.7400 H          1           0.1416
     43 H11        10.6962    -6.6804    85.8729 H          1           0.1355
     44 H12        11.9719    -4.9466    86.9085 H          1           0.3930
     45 H13        10.2971    -8.7052    87.0252 H          1           0.1501
     46 H14        11.5712    -8.3808    88.2251 H          1           0.1472
     47 H15         9.1496    -9.1165    89.3586 H          1           0.1434
     48 H16        10.5192    -8.3366    90.1848 H          1           0.1531
     49 H17         8.4350    -8.1157    91.5112 H          1           0.1395
     50 H18         9.0164    -6.5238    90.9643 H          1           0.1145
     51 H19         6.8208    -8.1920    89.6520 H          1           0.1574
     52 H20         6.5795    -6.2747    88.1245 H          1           0.1374
     53 H21         7.9118    -5.4279    88.9485 H          1           0.1160
     54 H22         8.7065    -6.5419    86.8787 H          1           0.1522
     55 H23         8.1300    -8.1069    87.4990 H          1           0.1451
     56 H24         5.1885    -8.2113    91.2251 H          1           0.1449
     57 H25         6.5288    -7.9287    92.3620 H          1           0.1419
     58 H26         4.0132    -6.2175    92.1150 H          1           0.1269
     59 H27         5.9555    -5.0416    92.8571 H          1           0.3889
     60 H28         3.4873    -7.1369    94.3572 H          1           0.0924
     61 H29         3.6066    -8.4358    93.1459 H          1           0.0883
     62 H30         5.5046    -9.9529    93.1340 H          1           0.1193
     63 H31         7.2733   -11.0316    94.4649 H          1           0.1280
     64 H32         8.0080   -10.0200    96.5863 H          1           0.1290
     65 H33         6.9747    -7.9291    97.3762 H          1           0.1277
     66 H34         5.2120    -6.8460    96.0409 H          1           0.1193
     67 H35        10.6311    -8.0493    84.5701 H          1           0.1249
@<TRIPOS>BOND
     1    1    2 1
     2    1   36 1
     3    1   37 1
     4    1   38 1
     5    2    3 1
     6    3   35 ar
     7    3    4 ar
     8    4    5 ar
     9    4   39 1
    10    5    6 ar
    11    5   40 1
    12    6   34 ar
    13    6    7 ar
    14    7    8 ar
    15    8    9 ar
    16    8   41 1
    17    9   10 ar
    18    9   42 1
    19   10   11 1
    20   10   34 ar
    21   11   12 1
    22   11   13 1
    23   11   43 1
    24   12   44 1
    25   13   14 1
    26   13   45 1
    27   13   46 1
    28   14   15 1
    29   14   20 1
    30   14   16 1
    31   16   17 1
    32   16   47 1
    33   16   48 1
    34   17   18 1
    35   17   49 1
    36   17   50 1
    37   18   19 1
    38   18   21 1
    39   18   51 1
    40   19   20 1
    41   19   52 1
    42   19   53 1
    43   20   54 1
    44   20   55 1
    45   21   22 1
    46   21   23 1
    47   21   24 1
    48   24   25 1
    49   24   56 1
    50   24   57 1
    51   25   26 1
    52   25   27 1
    53   25   58 1
    54   26   59 1
    55   27   28 1
    56   27   60 1
    57   27   61 1
    58   28   33 ar
    59   28   29 ar
    60   29   30 ar
    61   29   62 1
    62   30   31 ar
    63   30   63 1
    64   31   32 ar
    65   31   64 1
    66   32   33 ar
    67   32   65 1
    68   33   66 1
    69   34   35 ar
    70   35   67 1
##########                 Name:              T525910
##########          Protonation:                   43
##########               SMILES:   c1cc(cc(c1)OCc2cccc(c2)F)CNc3[nH+]c(nc(n3)N4CC[NH2+]CC4)NCCc5ccc(cc5)O
##########            Long Name:   hylamino]-4-piperazin-4-ium-1-yl-1,3,5-triazin-1-ium-2-yl]amino]ethyl]phenol
##########          FlexRecCode: 1
##########               Number:                  227
##########   Ligand Source File: /raidb/db2/rgc/tcams/tcams-0000122.db2.gz
##########           GlobalRank: 300
##########                 Rank:                    1
##########               Setnum:                  412
##########             Matchnum:                 2217
##########                Cloud:                    1
##########        Electrostatic:           -47.032730
##########        Van der Waals:           -24.858385
##########  Ligand Polar Desolv:            10.371992
########## Ligand Apolar Desolv:            -3.625386
##########      Internal Energy:             0.000000
##########      Receptor Energy: 0.0
########## Receptor Desolvation:             0.000000
########## Receptor Hydrophobic:             0.000000
##########         Total Energy: -65.14
##########        Ligand Charge:             2.000000
##########            Arbitrary:    +999.9990
##########     heavy atom count:   39
##########           pose count:    1
##########        Ligand Energy:             0.000000
# num electro vdwattr vdwrepu polsolv apolsol rdesolv rhydroe totalscore fullpol fullapo
#   1    3.97   -2.45    3.05   -2.00    0.39    0.00    0.00       2.96   -6.08    1.19
#   2   -2.21   -1.03    0.15    0.11   -0.09    0.00    0.00      -3.07    0.38   -0.31
#   3    2.91   -0.87    0.05   -0.95   -0.14    0.00    0.00       1.00   -3.01   -0.46
#   4    2.10   -1.05    0.08   -0.65   -0.15    0.00    0.00       0.33   -1.93   -0.46
#   5    2.67   -0.85    0.03   -0.54   -0.11    0.00    0.00       1.20   -1.69   -0.36
#   6    2.24   -0.90    0.08   -0.99   -0.09    0.00    0.00       0.35   -2.48   -0.23
#   7   -2.94   -0.89    0.16    1.24   -0.14    0.00    0.00      -2.56    3.30   -0.37
#   8   15.21   -0.74    0.05   -5.47    0.42    0.00    0.00       9.47  -22.56    1.74
#   9  -17.12   -0.79    0.13    5.42   -1.09    0.00    0.00     -13.46   23.94   -4.81
#  10    8.04   -0.54    0.03   -4.33    0.37    0.00    0.00       3.57  -21.47    1.84
#  11   -8.12   -0.37    0.01    3.44   -0.72    0.00    0.00      -5.76   22.26   -4.68
#  12   10.68   -0.40    0.02   -3.33    0.29    0.00    0.00       7.26  -21.27    1.84
#  13  -21.19   -1.38    0.59    5.81   -1.18    0.00    0.00     -17.35   23.69   -4.81
#  14   23.22   -2.73    1.87   -6.85    0.55    0.00    0.00      16.05  -21.71    1.73
#  15   -2.96   -0.61    0.07    1.13   -0.10    0.00    0.00      -2.46    4.59   -0.39
#  16    2.34   -0.91    0.12   -0.36   -0.10    0.00    0.00       1.09   -1.34   -0.37
#  17    1.98   -0.48    0.02   -0.52   -0.08    0.00    0.00       0.92   -3.03   -0.46
#  18   -1.58   -0.51    0.02    0.21   -0.06    0.00    0.00      -1.92    1.12   -0.31
#  19    1.64   -0.30    0.01   -0.70    0.12    0.00    0.00       0.77   -5.08    0.89
#  20   -0.23   -0.27    0.01    0.29   -0.02    0.00    0.00      -0.21    1.64   -0.10
#  21   -0.01   -0.36    0.02   -0.13   -0.06    0.00    0.00      -0.53   -0.93   -0.39
#  22    0.01   -0.17    0.00   -0.10   -0.03    0.00    0.00      -0.29   -1.41   -0.46
#  23   -0.03   -0.23    0.01   -0.11   -0.04    0.00    0.00      -0.40   -1.21   -0.47
#  24   -0.11   -0.86    0.26   -0.30   -0.09    0.00    0.00      -1.09   -1.68   -0.47
#  25    0.41   -1.09    0.24    0.06   -0.09    0.00    0.00      -0.47    0.22   -0.34
#  26   -0.98   -1.54    0.69   -0.42   -0.18    0.00    0.00      -2.43   -1.12   -0.48
#  27   -0.44   -0.83    0.18   -0.37   -0.11    0.00    0.00      -1.58   -1.52   -0.46
#  28    2.93   -0.94    0.08   -1.31   -0.14    0.00    0.00       0.62   -4.03   -0.42
#  29    2.04   -1.97    0.52   -0.95   -0.19    0.00    0.00      -0.55   -2.31   -0.47
#  30    4.03   -1.77    0.51   -1.15   -0.18    0.00    0.00       1.44   -2.93   -0.46
#  31   24.55   -2.60    3.27   -5.98    0.27    0.00    0.00      19.50  -22.01    0.99
#  32  -25.24   -0.15    0.05    5.08    0.11    0.00    0.00     -20.15   17.36    0.36
#  33    3.24   -0.34    0.02   -2.63    0.22    0.00    0.00       0.51  -20.49    1.70
#  34   -0.42   -0.10    0.00    0.20   -0.03    0.00    0.00      -0.35    2.90   -0.48
#  35    0.09   -0.12    0.00    0.03   -0.04    0.00    0.00      -0.04    0.37   -0.48
#  36    2.61   -0.33    0.02   -3.56    0.14    0.00    0.00      -1.13  -22.67    0.89
#  37   -1.51   -0.01    0.00    1.43    0.04    0.00    0.00      -0.05   22.38    0.56
#  38   -2.99   -0.01    0.00    2.44    0.06    0.00    0.00      -0.50   23.24    0.57
#  39    0.12   -0.47    0.05    0.09   -0.11    0.00    0.00      -0.32    0.41   -0.48
#  40   -0.16   -0.86    0.60    0.53   -0.09    0.00    0.00       0.02    2.82   -0.48
#  41    1.45   -0.89    0.06   -0.66   -0.15    0.00    0.00      -0.19   -1.99   -0.46
#  42    2.10   -1.05    0.10   -1.07   -0.17    0.00    0.00      -0.08   -2.98   -0.46
#  43   -7.69   -0.09    0.02    1.73    0.33    0.00    0.00      -5.70    6.36    1.22
#  44   -2.59   -0.18    0.01    0.29   -0.05    0.00    0.00      -2.51    1.61   -0.28
#  45   -3.03   -0.37    0.07    1.39   -0.09    0.00    0.00      -2.02    4.44   -0.28
#  46   -2.84   -0.59    0.22    1.18   -0.10    0.00    0.00      -2.13    3.16   -0.28
#  47   -2.25   -0.29    0.03    0.89   -0.07    0.00    0.00      -1.68    3.42   -0.28
#  48   -3.88   -0.40    0.15    1.28   -0.08    0.00    0.00      -2.93    4.57   -0.27
#  49   -3.72   -0.38    0.11    1.45   -0.09    0.00    0.00      -2.64    4.17   -0.27
#  50   -6.64   -0.01    0.00    1.78    0.07    0.00    0.00      -4.81   15.82    0.58
#  51  -24.14   -0.16    0.03    5.55    0.23    0.00    0.00     -18.48   14.16    0.58
#  52   -1.34   -0.07    0.00    0.37   -0.02    0.00    0.00      -1.05    5.72   -0.27
#  53   -1.76   -0.26    0.06    0.97   -0.05    0.00    0.00      -1.05    4.80   -0.27
#  54   -1.66   -0.05    0.00    0.16   -0.01    0.00    0.00      -1.56    3.44   -0.28
#  55   -0.10   -0.06    0.00    0.07   -0.01    0.00    0.00      -0.10    1.47   -0.26
#  56   -0.19   -0.15    0.01    0.29   -0.05    0.00    0.00      -0.08    1.61   -0.27
#  57   -0.08   -0.02    0.00    0.07   -0.01    0.00    0.00      -0.04    2.69   -0.28
#  58    0.02   -0.02    0.00    0.06   -0.01    0.00    0.00       0.05    2.45   -0.28
#  59    0.15   -0.37    0.31    0.25   -0.05    0.00    0.00       0.29    1.44   -0.28
#  60    0.79   -0.30    0.10    0.49   -0.07    0.00    0.00       1.01    1.96   -0.28
#  61   -1.73   -0.18    0.01    0.42   -0.05    0.00    0.00      -1.53    1.87   -0.22
#  62   -5.01   -0.90    0.79    1.21   -0.13    0.00    0.00      -4.04    2.60   -0.28
#  63   -4.92   -0.50    0.14    2.08   -0.12    0.00    0.00      -3.32    5.04   -0.28
#  64   -0.20   -0.02    0.00    0.14   -0.01    0.00    0.00      -0.09    5.17   -0.28
#  65   -0.97   -0.02    0.00    0.12   -0.01    0.00    0.00      -0.88    4.14   -0.24
#  66   -0.36   -0.02    0.00    0.20   -0.01    0.00    0.00      -0.19    8.41   -0.28
#  67   -0.71   -0.05    0.00    0.28   -0.01    0.00    0.00      -0.49    5.77   -0.28
#  68   -1.14   -0.25    0.03    1.99   -0.07    0.00    0.00       0.57    8.22   -0.28
#  69   -0.95   -0.12    0.01    0.60   -0.03    0.00    0.00      -0.49    5.72   -0.28
#  70    0.00   -0.41    0.30    0.71   -0.04    0.00    0.00       0.56    3.82   -0.24
#  71    0.10   -0.66    1.61    0.86   -0.05    0.00    0.00       1.88    5.06   -0.28
#  72   -1.18   -0.25    0.05    0.89   -0.06    0.00    0.00      -0.54    4.10   -0.28
#  73   -1.35   -0.32    0.05    0.49   -0.09    0.00    0.00      -1.22    1.45   -0.28

@<TRIPOS>MOLECULE
          T525910        43
   73    77     0     0     0



@<TRIPOS>ATOM
      1 O1         -1.1658    -7.3653    93.2071 O.3        1          -0.4958
      2 C1         -0.0438    -6.8010    93.7267 C.ar       1           0.1244
      3 C2          0.2345    -5.4627    93.4899 C.ar       1          -0.1430
      4 C3          1.3753    -4.8915    94.0196 C.ar       1          -0.0928
      5 C4          2.2397    -5.6525    94.7848 C.ar       1          -0.1183
      6 C5          3.4837    -5.0269    95.3609 C.3        1          -0.0828
      7 C6          4.6377    -5.1782    94.3678 C.3        1           0.0860
      8 N1          4.8795    -6.6005    94.1131 N.pl3      1          -0.6480
      9 C7          5.3726    -7.0083    92.8902 C.ar       1           0.7000
     10 N2          5.5869    -8.2996    92.6572 N.ar       1          -0.6241
     11 C8          6.0618    -8.6925    91.4795 C.ar       1           0.6925
     12 N3          6.3225    -7.7942    90.5346 N.ar       1          -0.6234
     13 C9          6.1081    -6.5033    90.7676 C.ar       1           0.6988
     14 N4          6.3783    -5.5708    89.7867 N.pl3      1          -0.6427
     15 C10         6.9012    -6.0038    88.4885 C.3        1           0.1353
     16 C11         8.4074    -6.0205    88.5339 C.ar       1          -0.0993
     17 C12         9.0737    -7.1681    88.9191 C.ar       1          -0.1272
     18 C13        10.4601    -7.1830    88.9601 C.ar       1           0.1385
     19 O2         11.1176    -8.3107    89.3381 O.3        1          -0.3045
     20 C14        12.5454    -8.2535    89.3572 C.3        1           0.1022
     21 C15        13.0956    -9.5855    89.7978 C.ar       1          -0.0778
     22 C16        13.3830   -10.5592    88.8592 C.ar       1          -0.1045
     23 C17        13.8873   -11.7815    89.2620 C.ar       1          -0.0891
     24 C18        14.1052   -12.0316    90.6039 C.ar       1          -0.1371
     25 C19        13.8183   -11.0573    91.5444 C.ar       1           0.0992
     26 F1         14.0309   -11.3006    92.8562 F          1          -0.1340
     27 C20        13.3179    -9.8312    91.1392 C.ar       1          -0.1310
     28 C21        11.1743    -6.0450    88.6140 C.ar       1          -0.1811
     29 C22        10.5037    -4.9003    88.2297 C.ar       1          -0.0726
     30 C23         9.1216    -4.8896    88.1845 C.ar       1          -0.1310
     31 N5          5.6280    -6.1108    91.9437 N.ar       1          -0.6326
     32 H1          5.4675    -5.1691    92.1123 H          1           0.4424
     33 N6          6.2848   -10.0328    91.2377 N.pl3      1          -0.5676
     34 C24         6.8157   -10.4898    89.9440 C.3        1           0.0919
     35 C25         8.0096   -11.4133    90.2079 C.3        1          -0.0216
     36 N7          7.5995   -12.4960    91.1112 N.4        1          -0.5089
     37 H2          6.8065   -12.9791    90.7168 H          1           0.4335
     38 H3          8.3640   -13.1444    91.2260 H          1           0.4427
     39 C26         7.2313   -11.9423    92.4204 C.3        1          -0.0214
     40 C27         6.0043   -11.0444    92.2682 C.3        1           0.0910
     41 C28         1.9643    -6.9864    95.0225 C.ar       1          -0.0924
     42 C29         0.8221    -7.5611    94.4996 C.ar       1          -0.1426
     43 H4         -1.7055    -6.7572    92.6835 H          1           0.3983
     44 H5         -0.4401    -4.8681    92.8918 H          1           0.1354
     45 H6          1.5924    -3.8498    93.8355 H          1           0.1280
     46 H7          3.3039    -3.9687    95.5505 H          1           0.0942
     47 H8          3.7413    -5.5248    96.2958 H          1           0.0938
     48 H9          4.3801    -4.6802    93.4329 H          1           0.0936
     49 H10         5.5374    -4.7255    94.7846 H          1           0.0938
     50 H11         4.6931    -7.2555    94.8038 H          1           0.4469
     51 H12         6.2219    -4.6287    89.9567 H          1           0.4474
     52 H13         6.5334    -7.0050    88.2643 H          1           0.1015
     53 H14         6.5687    -5.3126    87.7140 H          1           0.1005
     54 H15         8.5154    -8.0525    89.1882 H          1           0.1350
     55 H16        12.9131    -8.0211    88.3578 H          1           0.0789
     56 H17        12.8688    -7.4789    90.0525 H          1           0.0818
     57 H18        13.2130   -10.3647    87.8105 H          1           0.1330
     58 H19        14.1108   -12.5416    88.5279 H          1           0.1411
     59 H20        14.4989   -12.9868    90.9182 H          1           0.1426
     60 H21        13.0978    -9.0687    91.8719 H          1           0.1366
     61 H22        12.2539    -6.0540    88.6456 H          1           0.1393
     62 H23        11.0592    -4.0141    87.9606 H          1           0.1375
     63 H24         8.5990    -3.9949    87.8794 H          1           0.1286
     64 H25         6.0429   -11.0358    89.4031 H          1           0.1133
     65 H26         7.1402    -9.6306    89.3571 H          1           0.1481
     66 H27         8.3560   -11.8379    89.2657 H          1           0.1583
     67 H28         8.8161   -10.8423    90.6677 H          1           0.1387
     68 H29         7.0042   -12.7566    93.1085 H          1           0.1586
     69 H30         8.0615   -11.3552    92.8132 H          1           0.1386
     70 H31         5.7923   -10.5517    93.2170 H          1           0.1483
     71 H32         5.1480   -11.6475    91.9660 H          1           0.1130
     72 H33         2.6408    -7.5787    95.6209 H          1           0.1284
     73 H34         0.6055    -8.6021    94.6887 H          1           0.1355
@<TRIPOS>BOND
     1    1    2 1
     2    1   43 1
     3    2   42 ar
     4    2    3 ar
     5    3    4 ar
     6    3   44 1
     7    4    5 ar
     8    4   45 1
     9    5    6 1
    10    5   41 ar
    11    6    7 1
    12    6   46 1
    13    6   47 1
    14    7    8 1
    15    7   48 1
    16    7   49 1
    17    8    9 1
    18    8   50 1
    19    9   31 ar
    20    9   10 ar
    21   10   11 ar
    22   11   12 ar
    23   11   33 1
    24   12   13 ar
    25   13   14 1
    26   13   31 ar
    27   14   15 1
    28   14   51 1
    29   15   16 1
    30   15   52 1
    31   15   53 1
    32   16   30 ar
    33   16   17 ar
    34   17   18 ar
    35   17   54 1
    36   18   19 1
    37   18   28 ar
    38   19   20 1
    39   20   21 1
    40   20   55 1
    41   20   56 1
    42   21   27 ar
    43   21   22 ar
    44   22   23 ar
    45   22   57 1
    46   23   24 ar
    47   23   58 1
    48   24   25 ar
    49   24   59 1
    50   25   26 1
    51   25   27 ar
    52   27   60 1
    53   28   29 ar
    54   28   61 1
    55   29   30 ar
    56   29   62 1
    57   30   63 1
    58   31   32 1
    59   33   40 1
    60   33   34 1
    61   34   35 1
    62   34   64 1
    63   34   65 1
    64   35   36 1
    65   35   66 1
    66   35   67 1
    67   36   37 1
    68   36   38 1
    69   36   39 1
    70   39   40 1
    71   39   68 1
    72   39   69 1
    73   40   70 1
    74   40   71 1
    75   41   42 ar
    76   41   72 1
    77   42   73 1
##########                 Name:              T536558
##########          Protonation:                   23
##########               SMILES:   COc1ccc(c(c1)O)CN2CC[NH+](CC2)CCO[C@H](c3ccccc3)c4ccc(cc4)Cl
##########            Long Name:   rophenyl)-phenyl-methoxy]ethyl]piperazin-4-ium-1-yl]methyl]-5-methoxy-phenol
##########          FlexRecCode: 1
##########               Number:                  134
##########   Ligand Source File: /raidb/db2/rgc/tcams/tcams-0001562.db2.gz
##########           GlobalRank: 300
##########                 Rank:                    1
##########               Setnum:                  112
##########             Matchnum:                 2310
##########                Cloud:                    1
##########        Electrostatic:           -45.043976
##########        Van der Waals:           -23.086821
##########  Ligand Polar Desolv:             5.605961
########## Ligand Apolar Desolv:            -2.615093
##########      Internal Energy:             0.000000
##########      Receptor Energy: 0.0
########## Receptor Desolvation:             0.000000
########## Receptor Hydrophobic:             0.000000
##########         Total Energy: -65.14
##########        Ligand Charge:             1.000000
##########            Arbitrary:    +999.9990
##########     heavy atom count:   33
##########           pose count:    1
##########        Ligand Energy:             0.000000
# num electro vdwattr vdwrepu polsolv apolsol rdesolv rhydroe totalscore fullpol fullapo
#   1   -0.19   -1.12    0.11    0.07    0.02    0.00    0.00      -1.12    0.12    0.03
#   2    2.70   -1.22    0.14   -0.89    0.48    0.00    0.00       1.19   -1.74    0.93
#   3   -1.19   -1.38    0.18    0.17   -0.12    0.00    0.00      -2.35    0.42   -0.31
#   4    2.07   -1.63    0.31   -0.89   -0.17    0.00    0.00      -0.31   -2.17   -0.42
#   5    0.38   -1.27    0.12   -0.30   -0.17    0.00    0.00      -1.23   -0.82   -0.45
#   6    0.92   -1.38    0.42   -0.65   -0.11    0.00    0.00      -0.80   -2.11   -0.36
#   7   -0.80   -0.72    0.23    0.55   -0.08    0.00    0.00      -0.83    2.24   -0.32
#   8   11.93   -0.82    0.06   -3.43    0.92    0.00    0.00       8.66  -12.59    3.38
#   9   -0.89   -0.56    0.05    0.19   -0.11    0.00    0.00      -1.32    0.70   -0.40
#  10    1.03   -0.50    0.05   -0.16   -0.06    0.00    0.00       0.36   -0.69   -0.26
#  11   14.06   -1.76    1.57   -3.16    0.08    0.00    0.00      10.79  -11.71    0.28
#  12  -25.49   -0.17    0.06    4.66    0.17    0.00    0.00     -20.78   13.99    0.51
#  13    0.01   -0.65    0.11    0.16   -0.09    0.00    0.00      -0.47    0.64   -0.38
#  14   -0.90   -1.48    0.72    0.06   -0.03    0.00    0.00      -1.65    0.18   -0.11
#  15    1.87   -1.05    0.23   -2.47    0.27    0.00    0.00      -1.14   -9.24    1.01
#  16   -1.35   -0.85    0.23    1.22   -0.03    0.00    0.00      -0.78    4.20   -0.10
#  17    0.51   -1.44    0.29   -0.57   -0.12    0.00    0.00      -1.32   -1.72   -0.35
#  18    0.45   -2.33    1.09   -0.58   -0.19    0.00    0.00      -1.57   -1.34   -0.44
#  19    0.55   -2.99    1.81   -0.90   -0.24    0.00    0.00      -1.77   -1.75   -0.47
#  20    0.33   -2.53    1.05   -0.75   -0.24    0.00    0.00      -2.14   -1.49   -0.47
#  21    0.28   -1.47    0.26   -0.63   -0.18    0.00    0.00      -1.75   -1.60   -0.47
#  22    0.30   -1.08    0.18   -0.48   -0.14    0.00    0.00      -1.21   -1.62   -0.46
#  23    1.01   -0.59    0.04   -0.23   -0.07    0.00    0.00       0.16   -1.15   -0.35
#  24    1.31   -0.84    0.12   -0.27   -0.12    0.00    0.00       0.20   -1.03   -0.44
#  25    0.89   -0.60    0.08   -0.29   -0.09    0.00    0.00      -0.01   -1.55   -0.46
#  26    0.10   -0.29    0.02   -0.07   -0.03    0.00    0.00      -0.27   -0.64   -0.30
#  27    0.08   -0.26    0.01   -0.05   -0.07    0.00    0.00      -0.29   -0.74   -0.99
#  28    0.50   -0.20    0.01   -0.13   -0.04    0.00    0.00       0.14   -1.45   -0.46
#  29    0.64   -0.28    0.01   -0.15   -0.05    0.00    0.00       0.17   -1.34   -0.46
#  30    1.47   -0.90    0.43   -0.21   -0.09    0.00    0.00       0.71   -0.83   -0.37
#  31   -1.04   -1.23    0.67    0.21   -0.13    0.00    0.00      -1.52    0.69   -0.44
#  32   -0.44   -1.58    0.52    0.88   -0.08    0.00    0.00      -0.69    2.88   -0.25
#  33    0.59   -1.56    0.78   -2.55    0.17    0.00    0.00      -2.57   -9.96    0.66
#  34    0.93   -1.24    0.13   -0.80   -0.16    0.00    0.00      -1.14   -2.24   -0.46
#  35   -0.47   -0.57    0.15    0.47   -0.14    0.00    0.00      -0.56    0.93   -0.28
#  36   -0.54   -0.34    0.03    0.28   -0.13    0.00    0.00      -0.69    0.61   -0.27
#  37   -0.58   -0.31    0.03    0.17   -0.08    0.00    0.00      -0.77    0.53   -0.27
#  38   -1.85   -0.37    0.08    0.33   -0.07    0.00    0.00      -1.87    1.04   -0.22
#  39   -1.79   -0.22    0.01    0.51   -0.07    0.00    0.00      -1.55    2.09   -0.28
#  40   -0.69   -0.16    0.02    0.26   -0.04    0.00    0.00      -0.60    2.02   -0.27
#  41    0.01   -0.43    0.42    0.60   -0.03    0.00    0.00       0.56    3.03   -0.17
#  42   -2.98   -0.12    0.00    0.12   -0.01    0.00    0.00      -2.99    1.33   -0.15
#  43   -3.57   -0.29    0.06    0.49   -0.08    0.00    0.00      -3.39    1.81   -0.28
#  44   -1.86   -0.08    0.00    0.35   -0.01    0.00    0.00      -1.59    4.99   -0.16
#  45   -3.14   -0.16    0.01    0.77   -0.04    0.00    0.00      -2.56    4.56   -0.22
#  46   -2.02   -0.06    0.00    0.33   -0.02    0.00    0.00      -1.77    5.39   -0.28
#  47   -2.40   -0.18    0.02    1.31   -0.06    0.00    0.00      -1.30    6.61   -0.28
#  48   -5.37   -1.89    5.23    0.86   -0.12    0.00    0.00      -1.29    2.06   -0.28
#  49   -2.45   -0.31    0.08    0.71   -0.05    0.00    0.00      -2.02    3.20   -0.22
#  50   -2.13   -0.56    0.48    0.77   -0.07    0.00    0.00      -1.51    2.71   -0.26
#  51   -2.03   -0.47    0.20    1.10   -0.09    0.00    0.00      -1.29    3.13   -0.27
#  52   -0.80   -0.82    0.81    0.80   -0.14    0.00    0.00      -0.15    1.59   -0.28
#  53   -0.34   -1.00    1.15    0.47   -0.15    0.00    0.00       0.13    0.89   -0.28
#  54   -0.24   -0.29    0.07    0.26   -0.07    0.00    0.00      -0.27    1.07   -0.28
#  55   -0.30   -0.11    0.01    0.24   -0.03    0.00    0.00      -0.20    2.23   -0.28
#  56   -3.28   -0.22    0.02    0.83   -0.07    0.00    0.00      -2.72    3.42   -0.27
#  57   -0.48   -0.11    0.01    0.22   -0.04    0.00    0.00      -0.40    1.56   -0.28
#  58   -0.45   -0.02    0.00    0.03   -0.01    0.00    0.00      -0.45    1.11   -0.28
#  59   -0.72   -0.03    0.00    0.11   -0.01    0.00    0.00      -0.66    2.77   -0.28
#  60   -2.26   -0.09    0.00    0.43   -0.02    0.00    0.00      -1.93    5.03   -0.23
#  61   -4.55   -0.33    0.14    1.37   -0.07    0.00    0.00      -3.43    5.89   -0.28
#  62   -5.32   -1.27    4.96    0.84   -0.10    0.00    0.00      -0.88    2.49   -0.28
#  63   -3.06   -0.49    0.34    0.66   -0.07    0.00    0.00      -2.62    2.59   -0.28
#  64   -1.01   -0.02    0.00    2.13    0.22    0.00    0.00       1.31   11.16    1.17
#  65   -1.01   -0.21    0.01    0.21   -0.06    0.00    0.00      -1.06    0.96   -0.28

@<TRIPOS>MOLECULE
          T536558        23
   65    68     0     0     0



@<TRIPOS>ATOM
      1 C1          9.1067   -12.4133    97.1894 C.3        1           0.0236
      2 O1          8.6104   -11.1794    97.7123 O.3        1          -0.3122
      3 C2          7.7670   -10.4679    96.9191 C.ar       1           0.1572
      4 C3          7.2519    -9.2577    97.3624 C.ar       1          -0.2100
      5 C4          6.3944    -8.5339    96.5564 C.ar       1          -0.0392
      6 C5          6.0469    -9.0130    95.3076 C.ar       1          -0.1561
      7 C6          5.1112    -8.2210    94.4311 C.3        1           0.0989
      8 N1          5.5056    -6.8060    94.4466 N.3        1          -0.5204
      9 C7          4.3694    -5.9388    94.1047 C.3        1           0.0327
     10 C8          3.9473    -6.2028    92.6576 C.3        1          -0.0418
     11 N2          5.0786    -5.9330    91.7605 N.4        1          -0.3823
     12 H1          5.3699    -4.9728    91.8662 H          1           0.4292
     13 C9          4.6678    -6.1696    90.3701 C.3        1          -0.0004
     14 C10         5.6238    -5.4397    89.4245 C.3        1           0.0293
     15 O2          5.2241    -5.6699    88.0719 O.3        1          -0.3835
     16 C11         6.2567    -5.4350    87.1127 C.3        1           0.1898
     17 C12         5.6410    -5.2218    85.7538 C.ar       1          -0.1248
     18 C13         6.2721    -4.4117    84.8284 C.ar       1          -0.0949
     19 C14         5.7074    -4.2161    83.5819 C.ar       1          -0.1202
     20 C15         4.5117    -4.8310    83.2607 C.ar       1          -0.1072
     21 C16         3.8810    -5.6417    84.1858 C.ar       1          -0.1153
     22 C17         4.4480    -5.8408    85.4307 C.ar       1          -0.1063
     23 C18         7.1786    -6.6262    87.0651 C.ar       1          -0.0912
     24 C19         8.5134    -6.4547    86.7487 C.ar       1          -0.0813
     25 C20         9.3593    -7.5468    86.7044 C.ar       1          -0.1116
     26 C21         8.8701    -8.8118    86.9774 C.ar       1          -0.0256
     27 Cl1         9.9321   -10.1840    86.9227 Cl         1          -0.0561
     28 C22         7.5343    -8.9828    87.2945 C.ar       1          -0.1063
     29 C23         6.6905    -7.8891    87.3435 C.ar       1          -0.0923
     30 C24         6.1968    -6.8235    92.0982 C.3        1          -0.0482
     31 C25         6.6376    -6.5647    93.5406 C.3        1           0.0313
     32 C26         6.5591   -10.2224    94.8600 C.ar       1           0.1425
     33 O3          6.2170   -10.6928    93.6318 O.3        1          -0.5006
     34 C27         7.4248   -10.9475    95.6644 C.ar       1          -0.1757
     35 H2          9.7669   -12.8788    97.9213 H          1           0.1078
     36 H3          8.2711   -13.0803    96.9775 H          1           0.0606
     37 H4          9.6607   -12.2217    96.2704 H          1           0.0608
     38 H5          7.5215    -8.8815    98.3382 H          1           0.1370
     39 H6          5.9947    -7.5925    96.9031 H          1           0.1339
     40 H7          5.1606    -8.6008    93.4106 H          1           0.0958
     41 H8          4.0923    -8.3183    94.8060 H          1           0.0432
     42 H9          3.5345    -6.1531    94.7719 H          1           0.1411
     43 H10         4.6632    -4.8947    94.2131 H          1           0.0953
     44 H11         3.6405    -7.2434    92.5529 H          1           0.1315
     45 H12         3.1138    -5.5504    92.3976 H          1           0.1340
     46 H13         4.6949    -7.2388    90.1602 H          1           0.1383
     47 H14         3.6545    -5.7960    90.2220 H          1           0.1396
     48 H15         5.5966    -4.3705    89.6344 H          1           0.0991
     49 H16         6.6370    -5.8134    89.5725 H          1           0.0774
     50 H17         6.8229    -4.5485    87.3981 H          1           0.0862
     51 H18         7.2064    -3.9314    85.0794 H          1           0.1229
     52 H19         6.2001    -3.5827    82.8591 H          1           0.1254
     53 H20         4.0701    -4.6776    82.2871 H          1           0.1268
     54 H21         2.9467    -6.1219    83.9350 H          1           0.1278
     55 H22         3.9571    -6.4771    86.1521 H          1           0.1226
     56 H23         8.8952    -5.4670    86.5357 H          1           0.1323
     57 H24        10.4019    -7.4127    86.4565 H          1           0.1370
     58 H25         7.1519    -9.9701    87.5073 H          1           0.1397
     59 H26         5.6488    -8.0220    87.5952 H          1           0.1335
     60 H27         5.8785    -7.8612    91.9963 H          1           0.1266
     61 H28         7.0308    -6.6316    91.4234 H          1           0.1365
     62 H29         6.9688    -5.5310    93.6397 H          1           0.1048
     63 H30         7.4576    -7.2358    93.7963 H          1           0.1238
     64 H31         6.6230   -11.5415    93.4085 H          1           0.3870
     65 H32         7.8280   -11.8869    95.3160 H          1           0.1407
@<TRIPOS>BOND
     1    1    2 1
     2    1   35 1
     3    1   36 1
     4    1   37 1
     5    2    3 1
     6    3   34 ar
     7    3    4 ar
     8    4    5 ar
     9    4   38 1
    10    5    6 ar
    11    5   39 1
    12    6    7 1
    13    6   32 ar
    14    7    8 1
    15    7   40 1
    16    7   41 1
    17    8   31 1
    18    8    9 1
    19    9   10 1
    20    9   42 1
    21    9   43 1
    22   10   11 1
    23   10   44 1
    24   10   45 1
    25   11   12 1
    26   11   13 1
    27   11   30 1
    28   13   14 1
    29   13   46 1
    30   13   47 1
    31   14   15 1
    32   14   48 1
    33   14   49 1
    34   15   16 1
    35   16   17 1
    36   16   23 1
    37   16   50 1
    38   17   22 ar
    39   17   18 ar
    40   18   19 ar
    41   18   51 1
    42   19   20 ar
    43   19   52 1
    44   20   21 ar
    45   20   53 1
    46   21   22 ar
    47   21   54 1
    48   22   55 1
    49   23   29 ar
    50   23   24 ar
    51   24   25 ar
    52   24   56 1
    53   25   26 ar
    54   25   57 1
    55   26   27 1
    56   26   28 ar
    57   28   29 ar
    58   28   58 1
    59   29   59 1
    60   30   31 1
    61   30   60 1
    62   30   61 1
    63   31   62 1
    64   31   63 1
    65   32   33 1
    66   32   34 ar
    67   33   64 1
    68   34   65 1
##########                 Name:              T325621
##########          Protonation:                   94
##########               SMILES:   c1ccc(cc1)COc2ccccc2C[NH2+]C[C@@H](c3cccc(c3)Cl)O
##########            Long Name:   (2-benzyloxyphenyl)methyl-[(2R)-2-(3-chlorophenyl)-2-hydroxy-ethyl]ammonium
##########          FlexRecCode: 1
##########               Number:                  137
##########   Ligand Source File: /raidb/db2/rgc/tcams/tcams-0000199.db2.gz
##########           GlobalRank: 302
##########                 Rank:                    1
##########               Setnum:                  430
##########             Matchnum:                 4835
##########                Cloud:                    1
##########        Electrostatic:           -45.577663
##########        Van der Waals:           -25.130945
##########  Ligand Polar Desolv:             7.465387
########## Ligand Apolar Desolv:            -1.876308
##########      Internal Energy:             0.000000
##########      Receptor Energy: 0.0
########## Receptor Desolvation:             0.000000
########## Receptor Hydrophobic:             0.000000
##########         Total Energy: -65.12
##########        Ligand Charge:             1.000000
##########            Arbitrary:    +999.9990
##########     heavy atom count:   26
##########           pose count:    1
##########        Ligand Energy:             0.000000
# num electro vdwattr vdwrepu polsolv apolsol rdesolv rhydroe totalscore fullpol fullapo
#   1   27.25   -4.23    2.80   -7.96    0.89    0.00    0.00      18.74  -14.42    1.61
#   2   -4.97   -1.19    0.19    1.72   -0.07    0.00    0.00      -4.32    3.88   -0.15
#   3    1.28   -0.72    0.09   -0.16   -0.11    0.00    0.00       0.38   -0.52   -0.38
#   4   20.92   -2.43    2.68   -5.03    0.23    0.00    0.00      16.36  -16.13    0.73
#   5  -24.84   -0.14    0.02    6.38    0.22    0.00    0.00     -18.36   16.17    0.57
#   6  -20.75   -0.07    0.01    3.48    0.13    0.00    0.00     -17.20   14.18    0.52
#   7   -1.31   -0.58    0.07    0.55   -0.09    0.00    0.00      -1.37    2.25   -0.39
#   8    4.63   -1.09    0.21   -0.93   -0.10    0.00    0.00       2.73   -3.60   -0.37
#   9    1.55   -1.54    0.63   -0.24   -0.12    0.00    0.00       0.28   -0.91   -0.45
#  10    3.71   -1.00    0.15   -0.80   -0.12    0.00    0.00       1.95   -3.23   -0.47
#  11    0.59   -0.81    0.09   -0.37   -0.11    0.00    0.00      -0.62   -1.53   -0.47
#  12    0.80   -1.00    0.20   -0.91   -0.10    0.00    0.00      -1.00   -3.80   -0.42
#  13   -0.99   -0.97    0.15    0.66   -0.08    0.00    0.00      -1.23    2.63   -0.31
#  14    0.82   -0.84    0.13   -1.49    0.21    0.00    0.00      -1.18   -5.83    0.81
#  15   -0.19   -0.28    0.01    0.30   -0.02    0.00    0.00      -0.17    1.83   -0.10
#  16    0.15   -0.34    0.01   -0.19   -0.05    0.00    0.00      -0.43   -1.42   -0.39
#  17    0.13   -0.21    0.00   -0.11   -0.04    0.00    0.00      -0.22   -1.39   -0.45
#  18    0.18   -0.28    0.01   -0.20   -0.05    0.00    0.00      -0.35   -1.80   -0.47
#  19    0.15   -0.50    0.03   -0.34   -0.10    0.00    0.00      -0.77   -1.58   -0.47
#  20    0.12   -0.66    0.04   -0.47   -0.13    0.00    0.00      -1.10   -1.72   -0.47
#  21    0.10   -0.60    0.03   -0.38   -0.11    0.00    0.00      -0.97   -1.49   -0.45
#  22    4.26   -1.61    0.27   -0.84   -0.15    0.00    0.00       1.94   -1.88   -0.34
#  23    4.08   -2.96    1.34   -0.99   -0.24    0.00    0.00       1.23   -1.84   -0.44
#  24    2.89   -2.96    1.09   -0.97   -0.25    0.00    0.00      -0.21   -1.83   -0.47
#  25    1.93   -2.05    0.61   -0.76   -0.21    0.00    0.00      -0.48   -1.71   -0.46
#  26    0.54   -1.21    0.13   -0.38   -0.12    0.00    0.00      -1.03   -0.94   -0.30
#  27    0.38   -4.12    1.75   -0.46   -0.43    0.00    0.00      -2.87   -1.07   -0.99
#  28    2.02   -1.06    0.08   -0.62   -0.16    0.00    0.00       0.27   -1.74   -0.44
#  29  -28.01   -0.33    0.23    6.07    0.55    0.00    0.00     -21.49   11.11    1.00
#  30   -4.13   -0.39    0.07    1.53   -0.10    0.00    0.00      -3.03    4.50   -0.28
#  31   -2.89   -0.10    0.00    0.53   -0.03    0.00    0.00      -2.49    5.29   -0.28
#  32   -3.58   -0.21    0.02    1.33   -0.06    0.00    0.00      -2.50    6.38   -0.28
#  33   -2.13   -0.07    0.00    0.29   -0.02    0.00    0.00      -1.94    4.40   -0.27
#  34   -2.19   -0.17    0.02    1.21   -0.05    0.00    0.00      -1.18    6.68   -0.28
#  35   -5.07   -0.42    0.26    1.20   -0.06    0.00    0.00      -4.09    5.21   -0.28
#  36   -3.38   -0.17    0.02    0.29   -0.04    0.00    0.00      -3.28    1.84   -0.28
#  37   -1.80   -0.14    0.01    0.17   -0.04    0.00    0.00      -1.81    1.20   -0.28
#  38   -0.47   -0.19    0.03    0.27   -0.03    0.00    0.00      -0.40    1.70   -0.22
#  39   -0.13   -0.11    0.01    0.12   -0.03    0.00    0.00      -0.16    0.99   -0.26
#  40   -0.14   -0.04    0.00    0.06   -0.01    0.00    0.00      -0.12    1.62   -0.27
#  41   -0.18   -0.03    0.00    0.10   -0.01    0.00    0.00      -0.11    2.90   -0.28
#  42   -0.21   -0.06    0.00    0.12   -0.02    0.00    0.00      -0.16    1.99   -0.28
#  43   -0.23   -0.17    0.02    0.28   -0.06    0.00    0.00      -0.16    1.37   -0.28
#  44   -0.09   -0.22    0.02    0.36   -0.07    0.00    0.00      -0.01    1.34   -0.28
#  45   -0.11   -0.20    0.02    0.42   -0.07    0.00    0.00       0.06    1.77   -0.28
#  46   -6.65   -1.19    1.75    2.58   -0.13    0.00    0.00      -3.64    4.43   -0.23
#  47   -4.58   -0.99    0.70    1.23   -0.17    0.00    0.00      -3.82    1.97   -0.28
#  48   -2.71   -0.49    0.17    0.27   -0.10    0.00    0.00      -2.87    0.76   -0.28
#  49   -2.31   -0.16    0.01    0.58   -0.05    0.00    0.00      -1.93    3.36   -0.28

@<TRIPOS>MOLECULE
          T325621        94
   49    51     0     0     0



@<TRIPOS>ATOM
      1 O1          4.7791    -3.2117    93.8559 O.3        1          -0.5449
      2 C1          4.2520    -4.4071    94.4350 C.3        1           0.1364
      3 C2          3.6846    -5.3015    93.3309 C.3        1          -0.0430
      4 N1          4.5727    -5.2590    92.1615 N.4        1          -0.5039
      5 H1          4.6398    -4.3104    91.8245 H          1           0.4267
      6 H2          5.4896    -5.5886    92.4235 H          1           0.4326
      7 C3          4.0280    -6.1179    91.1015 C.3        1           0.0570
      8 C4          4.9390    -6.0742    89.9018 C.ar       1          -0.2007
      9 C5          6.3064    -6.1828    90.0677 C.ar       1          -0.0511
     10 C6          7.1427    -6.1424    88.9677 C.ar       1          -0.1511
     11 C7          6.6133    -5.9936    87.6988 C.ar       1          -0.0410
     12 C8          5.2470    -5.8850    87.5276 C.ar       1          -0.2050
     13 C9          4.4051    -5.9306    88.6296 C.ar       1           0.1554
     14 O2          3.0601    -5.8297    88.4634 O.3        1          -0.3208
     15 C10         2.4289    -6.8291    87.6604 C.3        1           0.1039
     16 C11         1.0157    -7.0398    88.1393 C.ar       1          -0.1098
     17 C12         0.7505    -7.9799    89.1177 C.ar       1          -0.0979
     18 C13        -0.5458    -8.1731    89.5571 C.ar       1          -0.1212
     19 C14        -1.5768    -7.4260    89.0187 C.ar       1          -0.1010
     20 C15        -1.3114    -6.4853    88.0411 C.ar       1          -0.1194
     21 C16        -0.0145    -6.2890    87.6047 C.ar       1          -0.0940
     22 C17         5.3504    -5.1404    95.1607 C.ar       1          -0.1287
     23 C18         6.6313    -4.6203    95.1828 C.ar       1          -0.1028
     24 C19         7.6392    -5.2920    95.8486 C.ar       1          -0.0964
     25 C20         7.3673    -6.4847    96.4925 C.ar       1          -0.0918
     26 C21         6.0859    -7.0056    96.4707 C.ar       1          -0.0314
     27 Cl1         5.7434    -8.5030    97.2795 Cl         1          -0.0485
     28 C22         5.0761    -6.3297    95.8088 C.ar       1          -0.0949
     29 H3          5.4902    -3.3640    93.2183 H          1           0.3886
     30 H4          3.4596    -4.1512    95.1384 H          1           0.1336
     31 H5          3.6119    -6.3264    93.6950 H          1           0.1374
     32 H6          2.6941    -4.9453    93.0479 H          1           0.1455
     33 H7          3.9554    -7.1427    91.4656 H          1           0.1378
     34 H8          3.0374    -5.7617    90.8186 H          1           0.1376
     35 H9          6.7222    -6.2991    91.0577 H          1           0.1400
     36 H10         8.2113    -6.2267    89.0995 H          1           0.1386
     37 H11         7.2688    -5.9619    86.8411 H          1           0.1391
     38 H12         4.8340    -5.7690    86.5365 H          1           0.1403
     39 H13         2.4152    -6.5041    86.6200 H          1           0.0800
     40 H14         2.9833    -7.7641    87.7416 H          1           0.0797
     41 H15         1.5559    -8.5635    89.5382 H          1           0.1241
     42 H16        -0.7532    -8.9080    90.3208 H          1           0.1289
     43 H17        -2.5897    -7.5775    89.3615 H          1           0.1290
     44 H18        -2.1168    -5.9019    87.6201 H          1           0.1294
     45 H19         0.1934    -5.5516    86.8437 H          1           0.1249
     46 H20         6.8444    -3.6889    94.6794 H          1           0.1294
     47 H21         8.6396    -4.8853    95.8655 H          1           0.1419
     48 H22         8.1550    -7.0099    97.0121 H          1           0.1429
     49 H23         4.0746    -6.7338    95.7950 H          1           0.1386
@<TRIPOS>BOND
     1    1    2 1
     2    1   29 1
     3    2    3 1
     4    2   22 1
     5    2   30 1
     6    3    4 1
     7    3   31 1
     8    3   32 1
     9    4    5 1
    10    4    6 1
    11    4    7 1
    12    7    8 1
    13    7   33 1
    14    7   34 1
    15    8   13 ar
    16    8    9 ar
    17    9   10 ar
    18    9   35 1
    19   10   11 ar
    20   10   36 1
    21   11   12 ar
    22   11   37 1
    23   12   13 ar
    24   12   38 1
    25   13   14 1
    26   14   15 1
    27   15   16 1
    28   15   39 1
    29   15   40 1
    30   16   21 ar
    31   16   17 ar
    32   17   18 ar
    33   17   41 1
    34   18   19 ar
    35   18   42 1
    36   19   20 ar
    37   19   43 1
    38   20   21 ar
    39   20   44 1
    40   21   45 1
    41   22   28 ar
    42   22   23 ar
    43   23   24 ar
    44   23   46 1
    45   24   25 ar
    46   24   47 1
    47   25   26 ar
    48   25   48 1
    49   26   27 1
    50   26   28 ar
    51   28   49 1
##########                 Name:              T526791
##########          Protonation:                   22
##########               SMILES:   H]([NH2+]C2)C(=O)N[C@@H](Cc3ccc(cc3)Cl)C(=O)N4CCN(CC4)c5cc[nH+]c6c5ccc(c6)Cl
##########            Long Name:   perazin-1-yl]-2-oxo-ethyl]-1,2,3,4-tetrahydroisoquinolin-2-ium-3-carboxamide
##########          FlexRecCode: 1
##########               Number:                  155
##########   Ligand Source File: /raidb/db2/rgc/tcams/tcams-0000211.db2.gz
##########           GlobalRank: 302
##########                 Rank:                    1
##########               Setnum:                  150
##########             Matchnum:                 3368
##########                Cloud:                    1
##########        Electrostatic:           -62.349228
##########        Van der Waals:           -19.639528
##########  Ligand Polar Desolv:            20.367039
########## Ligand Apolar Desolv:            -3.493480
##########      Internal Energy:             0.000000
##########      Receptor Energy: 0.0
########## Receptor Desolvation:             0.000000
########## Receptor Hydrophobic:             0.000000
##########         Total Energy: -65.12
##########        Ligand Charge:             2.000000
##########            Arbitrary:    +999.9990
##########     heavy atom count:   41
##########           pose count:    1
##########        Ligand Energy:             0.000000
# num electro vdwattr vdwrepu polsolv apolsol rdesolv rhydroe totalscore fullpol fullapo
#   1    0.05   -0.12    0.00   -0.07   -0.03    0.00    0.00      -0.17   -2.23   -0.98
#   2    0.04   -0.09    0.00   -0.06   -0.01    0.00    0.00      -0.11   -1.38   -0.29
#   3    0.16   -0.07    0.00   -0.11   -0.02    0.00    0.00      -0.04   -2.64   -0.46
#   4    0.13   -0.12    0.00   -0.15   -0.02    0.00    0.00      -0.16   -2.57   -0.31
#   5    0.04   -0.33    0.05   -0.13   -0.03    0.00    0.00      -0.41   -1.26   -0.24
#   6    0.08   -0.42    0.11   -0.34   -0.03    0.00    0.00      -0.60   -2.40   -0.20
#   7   -1.31   -0.24    0.01    0.62   -0.02    0.00    0.00      -0.95    4.42   -0.17
#   8    7.51   -0.50    0.03   -3.66    0.34    0.00    0.00       3.72  -21.24    1.97
#   9   -4.63   -0.88    0.21    3.55   -0.09    0.00    0.00      -1.84   16.82   -0.43
#  10    4.05   -0.86    0.16   -3.75    0.07    0.00    0.00      -0.32  -16.22    0.31
#  11   -0.15   -0.64    0.10    0.44   -0.08    0.00    0.00      -0.33    1.56   -0.27
#  12    1.02   -0.98    0.17   -1.18   -0.08    0.00    0.00      -1.06   -3.07   -0.22
#  13    1.70   -1.24    0.15   -0.68   -0.16    0.00    0.00      -0.22   -1.74   -0.40
#  14    1.63   -1.61    0.39   -1.37   -0.20    0.00    0.00      -1.17   -3.05   -0.45
#  15    1.73   -2.92    1.95   -1.54   -0.24    0.00    0.00      -1.01   -3.07   -0.47
#  16    2.69   -3.57    2.37   -1.80   -0.26    0.00    0.00      -0.57   -3.28   -0.47
#  17    3.10   -2.66    0.89   -1.45   -0.24    0.00    0.00      -0.36   -2.76   -0.45
#  18    3.89   -1.46    0.23   -1.19   -0.17    0.00    0.00       1.30   -2.79   -0.41
#  19   -1.54   -0.81    0.08    0.95   -0.18    0.00    0.00      -1.49    2.49   -0.46
#  20   11.29   -0.73    0.03   -5.96    0.22    0.00    0.00       4.85  -17.85    0.66
#  21   -9.97   -0.01    0.00    2.13    0.07    0.00    0.00      -7.78   16.83    0.56
#  22  -10.80   -0.02    0.00    4.97    0.14    0.00    0.00      -5.72   18.91    0.52
#  23   -5.82   -0.35    0.01    2.02   -0.09    0.00    0.00      -4.23   13.19   -0.58
#  24    3.07   -0.29    0.01   -1.81    0.05    0.00    0.00       1.03  -12.73    0.37
#  25    9.85   -0.61    0.04   -3.52    0.42    0.00    0.00       6.17  -16.50    1.95
#  26   -2.51   -1.12    0.52    0.57   -0.12    0.00    0.00      -2.65    2.15   -0.44
#  27   -2.87   -0.51    0.06    0.86   -0.11    0.00    0.00      -2.57    3.96   -0.50
#  28   11.70   -0.60    0.03   -4.43    0.24    0.00    0.00       6.94  -21.26    1.14
#  29   -0.81   -0.28    0.01    0.67   -0.08    0.00    0.00      -0.50    4.12   -0.51
#  30   -0.34   -0.46    0.04    0.51   -0.10    0.00    0.00      -0.35    2.33   -0.47
#  31   -7.33   -0.85    0.06    3.14   -0.16    0.00    0.00      -5.14   10.44   -0.54
#  32    1.89   -0.69    0.04   -0.83   -0.11    0.00    0.00       0.29   -3.02   -0.40
#  33    0.45   -0.35    0.01   -0.12   -0.06    0.00    0.00      -0.08   -0.89   -0.45
#  34    0.23   -0.29    0.01   -0.39   -0.05    0.00    0.00      -0.49   -3.32   -0.45
#  35   -0.10   -0.56    0.04   -0.07   -0.06    0.00    0.00      -0.75   -0.38   -0.30
#  36    0.00   -0.72    0.05   -0.32   -0.14    0.00    0.00      -1.14   -2.22   -0.99
#  37    1.96   -1.94    0.93   -1.16   -0.15    0.00    0.00      -0.35   -3.59   -0.45
#  38   -4.13   -1.70    0.51    1.79   -0.27    0.00    0.00      -3.81    4.82   -0.73
#  39   18.86   -5.14   10.23   -7.39    0.46    0.00    0.00      17.02  -15.72    0.97
#  40  -28.28   -0.76    1.94    9.01    0.29    0.00    0.00     -17.80   17.82    0.58
#  41   -7.68   -2.53    0.82    4.82   -0.45    0.00    0.00      -5.02   10.25   -0.96
#  42    4.90   -1.82    0.49   -2.43   -0.19    0.00    0.00       0.95   -6.00   -0.47
#  43    0.14   -0.47    0.10   -0.27   -0.06    0.00    0.00      -0.55   -2.20   -0.45
#  44    0.23   -0.19    0.01   -0.23   -0.04    0.00    0.00      -0.22   -2.86   -0.46
#  45   -0.14   -0.01    0.00    0.07   -0.01    0.00    0.00      -0.09    3.42   -0.28
#  46   -0.13   -0.02    0.00    0.12   -0.01    0.00    0.00      -0.04    4.79   -0.23
#  47   -0.06   -0.07    0.00    0.26   -0.02    0.00    0.00       0.12    3.69   -0.25
#  48    0.10   -0.64    1.07    0.40   -0.05    0.00    0.00       0.88    2.21   -0.28
#  49   -1.69   -0.07    0.00    0.26   -0.01    0.00    0.00      -1.51    4.23   -0.22
#  50   -4.95   -0.01    0.00    0.87    0.03    0.00    0.00      -4.04   12.69    0.49
#  51   -1.49   -0.24    0.05    1.78   -0.06    0.00    0.00       0.05    8.59   -0.28
#  52   -1.62   -0.41    0.09    1.77   -0.10    0.00    0.00      -0.28    4.64   -0.27
#  53   -0.14   -0.56    0.40    1.29   -0.07    0.00    0.00       0.92    4.08   -0.22
#  54   -1.76   -0.30    0.03    0.96   -0.09    0.00    0.00      -1.17    3.02   -0.28
#  55   -2.76   -0.69    0.34    0.53   -0.13    0.00    0.00      -2.70    1.16   -0.28
#  56   -4.26   -1.00    0.74    0.85   -0.18    0.00    0.00      -3.85    1.30   -0.28
#  57   -6.53   -0.86    0.69    2.18   -0.15    0.00    0.00      -4.68    3.97   -0.28
#  58   -5.37   -0.38    0.04    3.02   -0.11    0.00    0.00      -2.80    7.63   -0.28
#  59   -5.31   -0.25    0.06    1.36   -0.05    0.00    0.00      -4.20    7.18   -0.28
#  60   -4.13   -1.46    3.41    1.05   -0.08    0.00    0.00      -1.21    3.18   -0.23
#  61   -3.41   -0.27    0.11    0.74   -0.03    0.00    0.00      -2.87    4.11   -0.18
#  62   -2.69   -0.26    0.05    0.89   -0.06    0.00    0.00      -2.06    4.11   -0.27
#  63   -1.32   -0.06    0.00    0.15   -0.02    0.00    0.00      -1.25    2.55   -0.28
#  64   -0.34   -0.11    0.00    0.31   -0.03    0.00    0.00      -0.16    2.93   -0.27
#  65   -0.44   -0.04    0.00    0.06   -0.01    0.00    0.00      -0.42    1.59   -0.28
#  66   -0.29   -0.08    0.00    0.09   -0.02    0.00    0.00      -0.29    1.19   -0.23
#  67   -0.29   -0.41    0.18    0.68   -0.06    0.00    0.00       0.09    2.51   -0.24
#  68   -1.64   -0.04    0.00    0.23   -0.01    0.00    0.00      -1.47    5.35   -0.18
#  69   -0.29   -0.03    0.00    0.12   -0.01    0.00    0.00      -0.21    3.57   -0.28
#  70   -3.52   -1.23    2.27    1.84   -0.10    0.00    0.00      -0.74    5.16   -0.28
#  71   -6.88   -0.59    0.19    5.62   -0.13    0.00    0.00      -1.79   12.30   -0.28
#  72   -4.42   -0.87    1.41    2.51   -0.09    0.00    0.00      -1.46    7.67   -0.28
#  73   -0.20   -0.20    0.09    0.63   -0.04    0.00    0.00       0.28    4.91   -0.28
#  74   -0.50   -0.04    0.00    0.08   -0.01    0.00    0.00      -0.48    2.07   -0.28

@<TRIPOS>MOLECULE
          T526791        22
   74    79     0     0     0



@<TRIPOS>ATOM
      1 Cl1         7.5693   -12.2364    87.7045 Cl         1          -0.0570
      2 C1          6.4283   -11.4426    88.7446 C.ar       1          -0.0289
      3 C2          5.3583   -10.7545    88.2006 C.ar       1          -0.1145
      4 C3          4.4503   -10.1227    89.0290 C.ar       1          -0.1108
      5 C4          4.6111   -10.1777    90.4011 C.ar       1          -0.0705
      6 C5          3.6206    -9.4887    91.3038 C.3        1          -0.0910
      7 C6          4.0813    -8.0532    91.5649 C.3        1           0.1343
      8 N1          3.4277    -7.5429    92.7726 N.am       1          -0.6913
      9 C7          4.0109    -7.7096    93.9762 C.2        1           0.5109
     10 O1          5.0768    -8.2822    94.0594 O.2        1          -0.5020
     11 C8          3.3386    -7.1847    95.2185 C.3        1           0.0123
     12 C9          4.2076    -7.4822    96.4409 C.3        1          -0.0969
     13 C10         5.4800    -6.6767    96.3808 C.ar       1          -0.0929
     14 C11         6.5503    -7.0534    97.1758 C.ar       1          -0.1009
     15 C12         7.7279    -6.3328    97.1434 C.ar       1          -0.0884
     16 C13         7.8392    -5.2318    96.3146 C.ar       1          -0.0995
     17 C14         6.7733    -4.8568    95.5211 C.ar       1          -0.0891
     18 C15         5.5916    -5.5801    95.5514 C.ar       1          -0.1370
     19 C16         4.4497    -5.1471    94.6694 C.3        1           0.0483
     20 N2          3.1789    -5.7265    95.1183 N.4        1          -0.4893
     21 H1          2.4535    -5.5099    94.4513 H          1           0.4353
     22 H2          2.9341    -5.3495    96.0217 H          1           0.4404
     23 C17         3.7124    -7.1856    90.3892 C.2        1           0.5170
     24 O2          2.5499    -7.0658    90.0650 O.2        1          -0.5148
     25 N3          4.6744    -6.5426    89.6982 N.am       1          -0.6057
     26 C18         5.9159    -6.1196    90.3612 C.3        1           0.0786
     27 C19         7.1063    -6.7081    89.5939 C.3        1           0.1235
     28 N4          6.9329    -6.4179    88.1635 N.pl3      1          -0.6883
     29 C20         5.6913    -6.8409    87.5006 C.3        1           0.1245
     30 C21         4.5032    -6.2575    88.2667 C.3        1           0.0918
     31 C22         7.9226    -5.7565    87.4527 C.ar       1           0.3526
     32 C23         9.2255    -6.2975    87.3394 C.ar       1          -0.1024
     33 C24         9.5628    -7.5188    87.9393 C.ar       1          -0.0455
     34 C25        10.8275    -8.0076    87.8077 C.ar       1          -0.0944
     35 C26        11.7914    -7.3078    87.0839 C.ar       1           0.0409
     36 Cl2        13.3930    -7.9617    86.9383 Cl         1          -0.0012
     37 C27        11.4957    -6.1184    86.4883 C.ar       1          -0.1391
     38 C28        10.2011    -5.5842    86.6031 C.ar       1           0.1606
     39 N5          9.8838    -4.4182    86.0282 N.ar       1          -0.4634
     40 H3         10.5614    -3.9389    85.5260 H          1           0.4523
     41 C29         8.6788    -3.9068    86.1258 C.ar       1           0.2242
     42 C30         7.6656    -4.5474    86.8258 C.ar       1          -0.1866
     43 C31         5.6800   -10.8652    90.9452 C.ar       1          -0.0890
     44 C32         6.5853   -11.5028    90.1178 C.ar       1          -0.0960
     45 H4          5.2330   -10.7108    87.1288 H          1           0.1310
     46 H5          3.6150    -9.5855    88.6046 H          1           0.1225
     47 H6          2.6414    -9.4746    90.8252 H          1           0.0947
     48 H7          3.5551   -10.0270    92.2494 H          1           0.0943
     49 H8          5.1623    -8.0380    91.7027 H          1           0.1220
     50 H9          2.5752    -7.0847    92.7061 H          1           0.4202
     51 H10         2.3621    -7.6547    95.3351 H          1           0.1704
     52 H11         3.6584    -7.2233    97.3461 H          1           0.1284
     53 H12         4.4528    -8.5442    96.4598 H          1           0.1098
     54 H13         6.4632    -7.9134    97.8232 H          1           0.1362
     55 H14         8.5603    -6.6287    97.7647 H          1           0.1394
     56 H15         8.7585    -4.6656    96.2883 H          1           0.1402
     57 H16         6.8609    -3.9963    94.8742 H          1           0.1378
     58 H17         4.3741    -4.0599    94.6913 H          1           0.1439
     59 H18         4.6470    -5.4681    93.6466 H          1           0.1503
     60 H19         5.9801    -5.0315    90.3576 H          1           0.0825
     61 H20         5.9254    -6.4856    91.3878 H          1           0.1035
     62 H21         8.0312    -6.2542    89.9496 H          1           0.0950
     63 H22         7.1429    -7.7868    89.7466 H          1           0.0835
     64 H23         5.6819    -6.4750    86.4740 H          1           0.0942
     65 H24         5.6271    -7.9292    87.5042 H          1           0.0836
     66 H25         3.5801    -6.7145    87.9104 H          1           0.1154
     67 H26         4.4646    -5.1794    88.1104 H          1           0.0776
     68 H27         8.8240    -8.0690    88.5031 H          1           0.1604
     69 H28        11.0865    -8.9486    88.2704 H          1           0.1626
     70 H29        12.2533    -5.5886    85.9301 H          1           0.1700
     71 H30         8.4687    -2.9631    85.6446 H          1           0.2172
     72 H31         6.6827    -4.1037    86.8848 H          1           0.1887
     73 H32         5.8053   -10.9078    92.0171 H          1           0.1277
     74 H33         7.4176   -12.0438    90.5432 H          1           0.1360
@<TRIPOS>BOND
     1    1    2 1
     2    2   44 ar
     3    2    3 ar
     4    3    4 ar
     5    3   45 1
     6    4    5 ar
     7    4   46 1
     8    5    6 1
     9    5   43 ar
    10    6    7 1
    11    6   47 1
    12    6   48 1
    13    7    8 1
    14    7   23 1
    15    7   49 1
    16    8    9 am
    17    8   50 1
    18    9   10 2
    19    9   11 1
    20   11   20 1
    21   11   12 1
    22   11   51 1
    23   12   13 1
    24   12   52 1
    25   12   53 1
    26   13   18 ar
    27   13   14 ar
    28   14   15 ar
    29   14   54 1
    30   15   16 ar
    31   15   55 1
    32   16   17 ar
    33   16   56 1
    34   17   18 ar
    35   17   57 1
    36   18   19 1
    37   19   20 1
    38   19   58 1
    39   19   59 1
    40   20   21 1
    41   20   22 1
    42   23   24 2
    43   23   25 am
    44   25   30 1
    45   25   26 1
    46   26   27 1
    47   26   60 1
    48   26   61 1
    49   27   28 1
    50   27   62 1
    51   27   63 1
    52   28   29 1
    53   28   31 1
    54   29   30 1
    55   29   64 1
    56   29   65 1
    57   30   66 1
    58   30   67 1
    59   31   42 ar
    60   31   32 ar
    61   32   38 ar
    62   32   33 ar
    63   33   34 ar
    64   33   68 1
    65   34   35 ar
    66   34   69 1
    67   35   36 1
    68   35   37 ar
    69   37   38 ar
    70   37   70 1
    71   38   39 ar
    72   39   40 1
    73   39   41 ar
    74   41   42 ar
    75   41   71 1
    76   42   72 1
    77   43   44 ar
    78   43   73 1
    79   44   74 1
##########                 Name:              T538060
##########          Protonation:                   44
##########               SMILES:   c1cc(c(cc1C[NH2+]C2CC[NH2+]CC2)C(=O)NCc3ccc(c(c3)Cl)Cl)O
##########            Long Name:   henyl)methylcarbamoyl]-4-hydroxy-phenyl]methyl-piperidin-1-ium-4-yl-ammonium
##########          FlexRecCode: 1
##########               Number:                  193
##########   Ligand Source File: /raidb/db2/rgc/tcams/tcams-0001732.db2.gz
##########           GlobalRank: 303
##########                 Rank:                    1
##########               Setnum:                  389
##########             Matchnum:                 5597
##########                Cloud:                    1
##########        Electrostatic:           -61.543411
##########        Van der Waals:           -24.794556
##########  Ligand Polar Desolv:            22.623537
########## Ligand Apolar Desolv:            -1.384941
##########      Internal Energy:             0.000000
##########      Receptor Energy: 0.0
########## Receptor Desolvation:             0.000000
########## Receptor Hydrophobic:             0.000000
##########         Total Energy: -65.1
##########        Ligand Charge:             2.000000
##########            Arbitrary:    +999.9990
##########     heavy atom count:   27
##########           pose count:    1
##########        Ligand Energy:             0.000000
# num electro vdwattr vdwrepu polsolv apolsol rdesolv rhydroe totalscore fullpol fullapo
#   1    2.58   -2.84    2.29   -3.17    0.22    0.00    0.00      -0.92   -7.22    0.50
#   2   -1.60   -1.63    0.29    0.51   -0.12    0.00    0.00      -2.54    1.35   -0.31
#   3    0.78   -1.38    0.27   -1.76   -0.14    0.00    0.00      -2.23   -5.30   -0.41
#   4    0.43   -1.00    0.13   -0.20   -0.12    0.00    0.00      -0.76   -0.73   -0.43
#   5    3.62   -0.98    0.08   -1.33   -0.12    0.00    0.00       1.27   -4.22   -0.37
#   6   -1.47   -0.91    0.28    1.13   -0.13    0.00    0.00      -1.11    3.45   -0.40
#   7   16.48   -1.13    0.17  -10.93    0.26    0.00    0.00       4.85  -26.84    0.63
#   8  -13.30   -0.03    0.00    8.17    0.18    0.00    0.00      -4.97   25.29    0.56
#   9  -17.99   -0.03    0.00    8.96    0.20    0.00    0.00      -8.87   25.55    0.56
#  10   -0.28   -0.57    0.02    0.79   -0.07    0.00    0.00      -0.11    2.45   -0.23
#  11    3.61   -0.42    0.01   -2.40   -0.05    0.00    0.00       0.76   -9.92   -0.20
#  12    0.03   -0.44    0.02    0.02   -0.12    0.00    0.00      -0.49    0.09   -0.47
#  13   13.39   -1.06    0.21  -10.60    0.36    0.00    0.00       2.30  -26.22    0.89
#  14  -11.48   -0.02    0.00    6.00    0.14    0.00    0.00      -5.36   24.67    0.56
#  15  -15.08   -0.04    0.00    7.10    0.17    0.00    0.00      -7.85   23.83    0.57
#  16    0.04   -1.14    0.17    0.07   -0.23    0.00    0.00      -1.08    0.15   -0.47
#  17    4.32   -1.22    0.22   -4.11   -0.11    0.00    0.00      -0.90   -9.10   -0.24
#  18    0.85   -1.27    0.14   -0.14   -0.18    0.00    0.00      -0.61   -0.36   -0.45
#  19    1.88   -1.47    0.16   -2.39   -0.21    0.00    0.00      -2.02   -5.33   -0.46
#  20   -0.70   -2.12    0.93    3.18   -0.22    0.00    0.00       1.07    9.25   -0.65
#  21   -0.95   -3.96    2.87   -2.77   -0.12    0.00    0.00      -4.94   -6.35   -0.28
#  22    3.01   -1.20    0.24   -4.24    0.65    0.00    0.00      -1.55  -15.10    2.32
#  23   -1.13   -1.00    0.23    0.96   -0.14    0.00    0.00      -1.07    3.12   -0.44
#  24    0.91   -0.85    0.12   -0.32   -0.09    0.00    0.00      -0.24   -1.27   -0.37
#  25    0.56   -0.66    0.12   -0.19   -0.08    0.00    0.00      -0.25   -1.07   -0.45
#  26    0.26   -0.35    0.03   -0.21   -0.05    0.00    0.00      -0.33   -1.80   -0.46
#  27    0.03   -0.42    0.04   -0.11   -0.04    0.00    0.00      -0.50   -0.83   -0.29
#  28    0.00   -0.41    0.03   -0.10   -0.07    0.00    0.00      -0.54   -1.22   -0.95
#  29    0.02   -0.93    0.27   -0.19   -0.06    0.00    0.00      -0.88   -0.95   -0.29
#  30   -0.12   -3.03    2.68   -0.29   -0.23    0.00    0.00      -0.99   -1.22   -0.95
#  31    0.49   -0.92    0.14   -0.36   -0.11    0.00    0.00      -0.76   -1.45   -0.45
#  32   -3.24   -0.12    0.03    2.12    0.45    0.00    0.00      -0.74    5.69    1.22
#  33   -1.32   -0.14    0.01    1.11   -0.03    0.00    0.00      -0.37    8.43   -0.22
#  34   -6.04   -0.63    0.63    3.67   -0.08    0.00    0.00      -2.45   10.47   -0.22
#  35   -4.33   -0.20    0.04    1.50   -0.04    0.00    0.00      -3.02    9.86   -0.28
#  36   -2.27   -0.16    0.01    1.60   -0.04    0.00    0.00      -0.86   10.40   -0.28
#  37   -2.93   -0.17    0.01    1.43   -0.05    0.00    0.00      -1.72    7.67   -0.28
#  38   -2.54   -0.09    0.00    0.57   -0.02    0.00    0.00      -2.07    6.99   -0.22
#  39   -2.07   -0.09    0.00    0.57   -0.02    0.00    0.00      -1.62    6.36   -0.28
#  40   -1.26   -0.20    0.03    1.18   -0.05    0.00    0.00      -0.30    7.15   -0.28
#  41   -4.87   -0.59    0.17    3.13   -0.15    0.00    0.00      -2.31    6.02   -0.28
#  42   -2.75   -0.35    0.05    2.72   -0.11    0.00    0.00      -0.43    7.06   -0.28
#  43   -3.52   -0.74    0.57    2.40   -0.11    0.00    0.00      -1.40    6.07   -0.28
#  44   -3.16   -0.59    0.22    2.62   -0.10    0.00    0.00      -1.02    7.08   -0.28
#  45   -2.76   -0.45    0.33    2.88   -0.08    0.00    0.00      -0.09    9.56   -0.28
#  46   -2.27   -0.36    0.04    0.87   -0.11    0.00    0.00      -1.83    2.21   -0.28
#  47   -2.38   -0.01    0.00    1.55    0.05    0.00    0.00      -0.79   12.63    0.43
#  48   -1.14   -0.53    0.22    0.14   -0.09    0.00    0.00      -1.40    0.42   -0.28
#  49   -0.15   -0.47    0.33    0.36   -0.08    0.00    0.00      -0.01    1.30   -0.28
#  50   -0.66   -0.11    0.01    0.49   -0.03    0.00    0.00      -0.30    4.95   -0.28
#  51   -0.12   -0.03    0.00    0.13   -0.01    0.00    0.00      -0.03    3.76   -0.28
#  52   -0.97   -0.23    0.05    0.49   -0.05    0.00    0.00      -0.71    2.60   -0.28

@<TRIPOS>MOLECULE
          T538060        44
   52    54     0     0     0



@<TRIPOS>ATOM
      1 O1          7.1250   -10.5641    97.7468 O.3        1          -0.4683
      2 C1          6.8765    -9.5225    96.9141 C.ar       1           0.2218
      3 C2          6.6280    -9.7523    95.5539 C.ar       1          -0.1581
      4 C3          6.3734    -8.6716    94.7064 C.ar       1          -0.0425
      5 C4          6.3681    -7.3890    95.2111 C.ar       1          -0.1984
      6 C5          6.0927    -6.2239    94.2958 C.3        1           0.0464
      7 N1          5.1438    -5.3073    94.9416 N.4        1          -0.5075
      8 H1          5.5383    -4.9694    95.8068 H          1           0.4367
      9 H2          4.9596    -4.5272    94.3287 H          1           0.4306
     10 C6          3.8888    -6.0181    95.2204 C.3        1           0.0124
     11 C7          3.0437    -6.0844    93.9450 C.3        1          -0.1745
     12 C8          1.7052    -6.7551    94.2610 C.3        1          -0.0020
     13 N2          0.9929    -5.9772    95.2818 N.4        1          -0.5116
     14 H3          0.8712    -5.0298    94.9570 H          1           0.4336
     15 H4          0.0889    -6.3928    95.4498 H          1           0.4485
     16 C9          1.7643    -5.9696    96.5305 C.3        1          -0.0016
     17 C10         3.1051    -5.2687    96.3019 C.3        1          -0.1729
     18 C11         6.6141    -7.1662    96.5557 C.ar       1          -0.0497
     19 C12         6.8616    -8.2260    97.4058 C.ar       1          -0.1492
     20 C13         6.6357   -11.1278    95.0202 C.2        1           0.5484
     21 O2          6.3137   -12.0584    95.7335 O.2        1          -0.4946
     22 N3          6.9996   -11.3528    93.7422 N.am       1          -0.7222
     23 C14         7.0072   -12.7186    93.2123 C.3        1           0.1605
     24 C15         8.0655   -12.8379    92.1460 C.ar       1          -0.1013
     25 C16         7.7767   -13.4764    90.9542 C.ar       1          -0.0859
     26 C17         8.7464   -13.5866    89.9756 C.ar       1          -0.0997
     27 C18        10.0067   -13.0572    90.1881 C.ar       1          -0.0234
     28 Cl1        11.2250   -13.1946    88.9590 Cl         1          -0.0330
     29 C19        10.2958   -12.4174    91.3813 C.ar       1          -0.0346
     30 Cl2        11.8766   -11.7520    91.6493 Cl         1          -0.0329
     31 C20         9.3225   -12.3039    92.3579 C.ar       1          -0.0802
     32 H5          7.2801   -10.3051    98.6653 H          1           0.4141
     33 H6          6.1813    -8.8407    93.6572 H          1           0.1372
     34 H7          7.0240    -5.6965    94.0888 H          1           0.1425
     35 H8          5.6665    -6.5890    93.3614 H          1           0.1446
     36 H9          4.1107    -7.0281    95.5650 H          1           0.1584
     37 H10         2.8664    -5.0754    93.5729 H          1           0.1145
     38 H11         3.5718    -6.6645    93.1883 H          1           0.1378
     39 H12         1.1011    -6.8042    93.3551 H          1           0.1552
     40 H13         1.8836    -7.7641    94.6327 H          1           0.1448
     41 H14         1.2038    -5.4388    97.3001 H          1           0.1552
     42 H15         1.9415    -6.9954    96.8537 H          1           0.1447
     43 H16         3.6772    -5.2657    97.2297 H          1           0.1379
     44 H17         2.9291    -4.2427    95.9787 H          1           0.1137
     45 H18         6.6080    -6.1578    96.9427 H          1           0.1404
     46 H19         7.0482    -8.0446    98.4540 H          1           0.1544
     47 H20         7.2565   -10.6104    93.1731 H          1           0.3944
     48 H21         7.2229   -13.4198    94.0184 H          1           0.0897
     49 H22         6.0316   -12.9471    92.7831 H          1           0.0906
     50 H23         6.7928   -13.8899    90.7881 H          1           0.1411
     51 H24         8.5203   -14.0861    89.0452 H          1           0.1479
     52 H25         9.5460   -11.8013    93.2874 H          1           0.1462
@<TRIPOS>BOND
     1    1    2 1
     2    1   32 1
     3    2   19 ar
     4    2    3 ar
     5    3    4 ar
     6    3   20 1
     7    4    5 ar
     8    4   33 1
     9    5    6 1
    10    5   18 ar
    11    6    7 1
    12    6   34 1
    13    6   35 1
    14    7    8 1
    15    7    9 1
    16    7   10 1
    17   10   17 1
    18   10   11 1
    19   10   36 1
    20   11   12 1
    21   11   37 1
    22   11   38 1
    23   12   13 1
    24   12   39 1
    25   12   40 1
    26   13   14 1
    27   13   15 1
    28   13   16 1
    29   16   17 1
    30   16   41 1
    31   16   42 1
    32   17   43 1
    33   17   44 1
    34   18   19 ar
    35   18   45 1
    36   19   46 1
    37   20   21 2
    38   20   22 am
    39   22   23 1
    40   22   47 1
    41   23   24 1
    42   23   48 1
    43   23   49 1
    44   24   31 ar
    45   24   25 ar
    46   25   26 ar
    47   25   50 1
    48   26   27 ar
    49   26   51 1
    50   27   28 1
    51   27   29 ar
    52   29   30 1
    53   29   31 ar
    54   31   52 1
##########                 Name:              T530819
##########          Protonation:                   13
##########               SMILES:   CC1(NC(=[NH2+])NC(=[NH2+])N1OCCSc2ccccc2)C
##########            Long Name:   e-6,6-dimethyl-1-(2-phenylsulfanylethoxy)-1,3,5-triazinan-2-ylidene]ammonium
##########          FlexRecCode: 1
##########               Number:                  373
##########   Ligand Source File: /raidb/db2/rgc/tcams/tcams-0000744.db2.gz
##########           GlobalRank: 306
##########                 Rank:                    1
##########               Setnum:                   13
##########             Matchnum:                  627
##########                Cloud:                    1
##########        Electrostatic:           -48.715332
##########        Van der Waals:           -21.571526
##########  Ligand Polar Desolv:             8.502556
########## Ligand Apolar Desolv:            -3.305021
##########      Internal Energy:             0.000000
##########      Receptor Energy: 0.0
########## Receptor Desolvation:             0.000000
########## Receptor Hydrophobic:             0.000000
##########         Total Energy: -65.09
##########        Ligand Charge:             2.000000
##########            Arbitrary:    +999.9990
##########     heavy atom count:   20
##########           pose count:    1
##########        Ligand Energy:             0.000000
# num electro vdwattr vdwrepu polsolv apolsol rdesolv rhydroe totalscore fullpol fullapo
#   1    3.90   -1.64    0.72   -4.24   -0.09    0.00    0.00      -1.34   -8.08   -0.18
#   2   -9.00   -0.74    0.04    7.41   -0.16    0.00    0.00      -2.44   17.84   -0.38
#   3    4.72   -1.38    0.37   -3.04   -0.07    0.00    0.00       0.59   -6.80   -0.16
#   4   20.02   -1.66    0.58  -14.12    0.67    0.00    0.00       5.49  -32.16    1.52
#   5  -17.22   -0.96    0.10   11.50   -1.39    0.00    0.00      -7.97   37.52   -4.53
#   6   16.87   -1.36    0.27  -10.97    0.31    0.00    0.00       5.12  -31.42    0.89
#   7  -14.45   -0.03    0.00    7.72    0.20    0.00    0.00      -6.56   23.68    0.60
#   8   -9.26   -0.02    0.00    4.39    0.11    0.00    0.00      -4.78   24.53    0.60
#   9    8.36   -0.55    0.01   -7.11    0.26    0.00    0.00       0.97  -31.14    1.15
#  10  -10.40   -0.56    0.02    6.76   -0.83    0.00    0.00      -5.00   35.75   -4.37
#  11   10.64   -0.48    0.01   -5.80    0.17    0.00    0.00       4.55  -30.47    0.89
#  12   -6.22   -0.01    0.00    1.59    0.04    0.00    0.00      -4.60   24.01    0.60
#  13   -9.53   -0.01    0.00    2.03    0.04    0.00    0.00      -7.46   21.01    0.45
#  14    6.97   -0.79    0.05   -5.72    0.24    0.00    0.00       0.75  -21.08    0.87
#  15    0.47   -1.15    0.40   -1.00    0.13    0.00    0.00      -1.15   -3.44    0.43
#  16   -0.37   -0.55    0.03    0.36   -0.04    0.00    0.00      -0.57    1.19   -0.13
#  17    1.67   -0.71    0.04   -1.22   -0.03    0.00    0.00      -0.25   -3.32   -0.09
#  18    0.35   -2.54    0.79   -0.78   -0.27    0.00    0.00      -2.45   -2.25   -0.78
#  19    0.71   -1.53    0.27   -0.70   -0.11    0.00    0.00      -1.37   -1.81   -0.29
#  20    0.84   -1.53    0.20   -1.13   -0.22    0.00    0.00      -1.84   -2.30   -0.44
#  21    0.74   -1.87    0.26   -1.10   -0.27    0.00    0.00      -2.24   -1.90   -0.47
#  22    0.97   -2.47    1.03   -1.21   -0.27    0.00    0.00      -1.95   -2.14   -0.47
#  23    1.34   -2.37    0.93   -0.93   -0.25    0.00    0.00      -1.29   -1.73   -0.47
#  24    1.13   -1.79    0.46   -0.95   -0.22    0.00    0.00      -1.37   -1.99   -0.46
#  25   -2.86   -0.84    0.82    1.65   -0.15    0.00    0.00      -1.36    3.05   -0.27
#  26   -1.80   -0.65    0.41    1.86   -0.12    0.00    0.00      -0.31    4.22   -0.28
#  27   -1.35   -0.44    0.10    2.02   -0.10    0.00    0.00       0.22    5.04   -0.26
#  28   -3.01   -0.29    0.03    0.67   -0.07    0.00    0.00      -2.67    2.43   -0.27
#  29   -2.58   -1.15    1.66    1.13   -0.13    0.00    0.00      -1.07    2.45   -0.28
#  30   -3.44   -0.43    0.08    1.32   -0.09    0.00    0.00      -2.56    3.96   -0.28
#  31  -19.46   -0.09    0.02    8.17    0.22    0.00    0.00     -11.14   21.50    0.58
#  32   -3.04   -0.01    0.00    1.93    0.04    0.00    0.00      -1.07   26.16    0.59
#  33   -2.10   -0.13    0.01    0.49   -0.03    0.00    0.00      -1.77    4.01   -0.26
#  34   -1.86   -0.19    0.01    0.95   -0.04    0.00    0.00      -1.13    5.29   -0.22
#  35   -1.91   -0.26    0.03    0.83   -0.06    0.00    0.00      -1.37    3.49   -0.27
#  36   -1.38   -0.27    0.02    0.81   -0.08    0.00    0.00      -0.89    2.84   -0.27
#  37   -0.66   -0.31    0.04    1.38   -0.07    0.00    0.00       0.38    4.10   -0.21
#  38   -0.85   -0.50    0.12    1.32   -0.15    0.00    0.00      -0.07    2.45   -0.28
#  39   -0.87   -0.99    2.36    0.87   -0.16    0.00    0.00       1.20    1.48   -0.28
#  40   -2.82   -0.64    0.25    0.75   -0.14    0.00    0.00      -2.59    1.47   -0.28
#  41   -1.98   -0.29    0.02    0.62   -0.09    0.00    0.00      -1.72    1.85   -0.28

@<TRIPOS>MOLECULE
          T530819        13
   41    42     0     0     0



@<TRIPOS>ATOM
      1 C1          2.5738    -6.3507    97.3132 C.3        1          -0.1927
      2 C2          2.2738    -5.9971    95.8551 C.3        1           0.4029
      3 C3          2.6839    -4.5509    95.5703 C.3        1          -0.1749
      4 N1          0.8396    -6.1822    95.5742 N.pl3      1          -0.7059
      5 C4          0.4463    -6.2045    94.2439 C.cat      1           0.7709
      6 N2         -0.5949    -5.5452    93.8224 N.pl3      1          -0.6657
      7 H1         -1.1205    -5.0190    94.4452 H          1           0.4689
      8 H2         -0.8450    -5.5805    92.8859 H          1           0.4607
      9 N3          1.2298    -6.9728    93.3839 N.pl3      1          -0.6702
     10 C5          2.6030    -6.9377    93.6223 C.cat      1           0.7653
     11 N4          3.4706    -6.9276    92.6508 N.pl3      1          -0.6705
     12 H3          3.1674    -6.9448    91.7295 H          1           0.4608
     13 H4          4.4200    -6.9030    92.8484 H          1           0.4609
     14 N5          2.9926    -6.9140    94.9537 N.pl3      1          -0.4861
     15 O1          4.0411    -7.7392    95.4277 O.3        1          -0.0658
     16 C6          5.3346    -7.1361    95.3523 C.3        1           0.0220
     17 C7          6.2890    -7.8556    96.3075 C.3        1          -0.1267
     18 S1          6.4088    -9.6040    95.8392 S.3        1          -0.0770
     19 C8          7.5283   -10.2851    97.0172 C.ar       1          -0.0984
     20 C9          7.8664   -11.6319    96.9590 C.ar       1          -0.1317
     21 C10         8.7439   -12.1623    97.8839 C.ar       1          -0.0989
     22 C11         9.2862   -11.3550    98.8672 C.ar       1          -0.1072
     23 C12         8.9516   -10.0145    98.9286 C.ar       1          -0.0943
     24 C13         8.0795    -9.4757    98.0034 C.ar       1          -0.0911
     25 H5          2.0374    -5.6667    97.9707 H          1           0.1137
     26 H6          2.2527    -7.3730    97.5125 H          1           0.1255
     27 H7          3.6450    -6.2643    97.4950 H          1           0.0700
     28 H8          2.4661    -4.3097    94.5299 H          1           0.1111
     29 H9          2.1263    -3.8797    96.2234 H          1           0.1011
     30 H10         3.7518    -4.4331    95.7546 H          1           0.1165
     31 H11         0.1950    -6.2847    96.2917 H          1           0.4667
     32 H12         0.8442    -7.4980    92.6654 H          1           0.4813
     33 H13         5.7132    -7.2141    94.3331 H          1           0.1043
     34 H14         5.2625    -6.0855    95.6337 H          1           0.0778
     35 H15         7.2756    -7.3958    96.2502 H          1           0.1086
     36 H16         5.9105    -7.7776    97.3266 H          1           0.1138
     37 H17         7.4431   -12.2630    96.1916 H          1           0.1187
     38 H18         9.0069   -13.2088    97.8394 H          1           0.1317
     39 H19         9.9723   -11.7725    99.5893 H          1           0.1343
     40 H20         9.3766    -9.3871    99.6981 H          1           0.1374
     41 H21         7.8228    -8.4277    98.0487 H          1           0.1319
@<TRIPOS>BOND
     1    1    2 1
     2    1   25 1
     3    1   26 1
     4    1   27 1
     5    2   14 1
     6    2    3 1
     7    2    4 1
     8    3   28 1
     9    3   29 1
    10    3   30 1
    11    4    5 1
    12    4   31 1
    13    5    6 2
    14    5    9 1
    15    6    7 1
    16    6    8 1
    17    9   10 1
    18    9   32 1
    19   10   11 2
    20   10   14 1
    21   11   12 1
    22   11   13 1
    23   14   15 1
    24   15   16 1
    25   16   17 1
    26   16   33 1
    27   16   34 1
    28   17   18 1
    29   17   35 1
    30   17   36 1
    31   18   19 1
    32   19   24 ar
    33   19   20 ar
    34   20   21 ar
    35   20   37 1
    36   21   22 ar
    37   21   38 1
    38   22   23 ar
    39   22   39 1
    40   23   24 ar
    41   23   40 1
    42   24   41 1
##########                 Name:              T530751
##########          Protonation:                   88
##########               SMILES:   COc1cccc(c1)CCNc2[nH]c3cc(c(cc3/c(=N/Cc4ccccc4)/[nH+]2)OC)OC
##########            Long Name:   imino-6,7-dimethoxy-N-[2-(3-methoxyphenyl)ethyl]-1H-quinazolin-3-ium-2-amine
##########          FlexRecCode: 1
##########               Number:                  176
##########   Ligand Source File: /raidb/db2/rgc/tcams/tcams-0000750.db2.gz
##########           GlobalRank: 306
##########                 Rank:                    1
##########               Setnum:                  109
##########             Matchnum:                 4504
##########                Cloud:                    1
##########        Electrostatic:           -41.598942
##########        Van der Waals:           -28.924919
##########  Ligand Polar Desolv:             9.152898
########## Ligand Apolar Desolv:            -3.723068
##########      Internal Energy:             0.000000
##########      Receptor Energy: 0.0
########## Receptor Desolvation:             0.000000
########## Receptor Hydrophobic:             0.000000
##########         Total Energy: -65.09
##########        Ligand Charge:             1.000000
##########            Arbitrary:    +999.9990
##########     heavy atom count:   33
##########           pose count:    1
##########        Ligand Energy:             0.000000
# num electro vdwattr vdwrepu polsolv apolsol rdesolv rhydroe totalscore fullpol fullapo
#   1   -0.30   -0.95    0.13    0.06    0.01    0.00    0.00      -1.05    0.15    0.03
#   2    3.42   -1.02    0.07   -0.96    0.36    0.00    0.00       1.87   -2.47    0.93
#   3   -2.34   -1.10    0.09    0.21   -0.12    0.00    0.00      -3.27    0.54   -0.31
#   4    4.82   -2.07    0.65   -0.97   -0.18    0.00    0.00       2.25   -2.23   -0.42
#   5    2.65   -2.68    0.96   -0.66   -0.24    0.00    0.00       0.03   -1.30   -0.47
#   6    5.92   -2.46    1.08   -1.21   -0.23    0.00    0.00       3.10   -2.38   -0.45
#   7    1.81   -1.36    0.17   -0.22   -0.14    0.00    0.00       0.24   -0.56   -0.36
#   8    2.34   -1.00    0.12   -0.85   -0.10    0.00    0.00       0.52   -2.02   -0.23
#   9   -2.17   -0.58    0.03    0.70   -0.12    0.00    0.00      -2.13    2.30   -0.38
#  10   23.14   -1.80    0.47   -6.65    0.59    0.00    0.00      15.76  -19.13    1.71
#  11  -19.38   -1.94    0.77    6.55   -1.52    0.00    0.00     -15.53   20.67   -4.80
#  12    7.62   -1.46    0.75   -3.84    0.24    0.00    0.00       3.30  -15.02    0.95
#  13   -5.71   -0.01    0.00    1.77    0.04    0.00    0.00      -3.91   12.08    0.27
#  14   -0.86   -1.36    0.99    1.91   -0.50    0.00    0.00       0.19    8.11   -2.12
#  15    0.75   -0.73    0.14   -1.81    0.63    0.00    0.00      -1.03   -8.61    2.98
#  16   -0.40   -0.45    0.03    0.33   -0.12    0.00    0.00      -0.60    1.35   -0.48
#  17    0.26   -0.54    0.04   -0.22   -0.07    0.00    0.00      -0.54   -1.12   -0.38
#  18    0.90   -1.09    0.25   -0.35   -0.13    0.00    0.00      -0.42   -1.20   -0.45
#  19    1.08   -1.37    0.25   -0.45   -0.18    0.00    0.00      -0.68   -1.20   -0.47
#  20    0.16   -1.73    0.59   -0.43   -0.16    0.00    0.00      -1.56   -1.27   -0.47
#  21    0.11   -0.76    0.11   -0.35   -0.11    0.00    0.00      -1.01   -1.51   -0.47
#  22    0.19   -0.34    0.01   -0.23   -0.07    0.00    0.00      -0.44   -1.50   -0.45
#  23    0.21   -1.33    0.46   -0.55   -0.11    0.00    0.00      -1.32   -2.01   -0.41
#  24    0.16   -1.08    0.27   -0.28   -0.10    0.00    0.00      -1.03   -1.15   -0.40
#  25   -0.24   -1.49    0.78    0.05   -0.08    0.00    0.00      -0.98    0.19   -0.31
#  26    0.53   -0.98    0.17   -0.66    0.16    0.00    0.00      -0.77   -2.49    0.61
#  27   -0.03   -0.31    0.01    0.03    0.01    0.00    0.00      -0.30    0.15    0.03
#  28   -0.58   -1.85    1.12    0.44   -0.09    0.00    0.00      -0.95    1.57   -0.31
#  29    1.15   -1.08    0.17   -1.13    0.18    0.00    0.00      -0.70   -3.66    0.60
#  30   -0.07   -1.83    0.90    0.00    0.01    0.00    0.00      -1.00   -0.01    0.03
#  31    1.57   -2.56    2.25   -1.04   -0.14    0.00    0.00       0.08   -3.22   -0.42
#  32   -2.13   -1.90    0.59    1.46   -0.23    0.00    0.00      -2.22    4.48   -0.72
#  33   21.50   -3.30    2.76   -5.59    0.38    0.00    0.00      15.74  -15.56    1.05
#  34    2.72   -1.08    0.08   -0.81   -0.17    0.00    0.00       0.75   -2.23   -0.46
#  35   -1.04   -0.25    0.02    0.25   -0.06    0.00    0.00      -1.08    1.11   -0.28
#  36   -0.75   -0.46    0.24    0.14   -0.06    0.00    0.00      -0.89    0.60   -0.26
#  37   -0.97   -0.36    0.07    0.14   -0.08    0.00    0.00      -1.20    0.47   -0.26
#  38   -2.95   -1.06    1.31    0.35   -0.09    0.00    0.00      -2.44    0.90   -0.22
#  39   -5.73   -0.97    0.55    0.95   -0.17    0.00    0.00      -5.36    1.60   -0.28
#  40   -6.21   -0.80    0.69    1.75   -0.14    0.00    0.00      -4.71    3.43   -0.28
#  41   -2.42   -0.29    0.03    0.92   -0.09    0.00    0.00      -1.85    2.97   -0.28
#  42   -3.08   -0.65    0.30    1.47   -0.12    0.00    0.00      -2.08    3.49   -0.28
#  43   -1.76   -0.10    0.00    0.33   -0.02    0.00    0.00      -1.55    3.69   -0.27
#  44   -2.23   -0.18    0.01    0.61   -0.05    0.00    0.00      -1.84    3.20   -0.27
#  45  -21.28   -0.05    0.00    5.49    0.20    0.00    0.00     -15.64   15.61    0.57
#  46   -0.41   -0.17    0.01    0.40   -0.03    0.00    0.00      -0.20    2.35   -0.19
#  47   -0.50   -0.16    0.01    0.32   -0.06    0.00    0.00      -0.38    1.59   -0.28
#  48   -2.95   -0.37    0.22    0.32   -0.07    0.00    0.00      -2.86    1.23   -0.28
#  49   -2.31   -0.43    0.12    0.34   -0.11    0.00    0.00      -2.39    0.84   -0.28
#  50    0.17   -1.11    1.81    0.38   -0.11    0.00    0.00       1.14    0.93   -0.28
#  51   -0.04   -0.19    0.05    0.28   -0.05    0.00    0.00       0.06    1.75   -0.28
#  52   -0.15   -0.04    0.00    0.13   -0.01    0.00    0.00      -0.07    3.27   -0.28
#  53   -0.23   -0.12    0.01    0.22   -0.03    0.00    0.00      -0.15    1.72   -0.20
#  54   -0.19   -0.12    0.01    0.11   -0.03    0.00    0.00      -0.23    0.95   -0.28
#  55   -0.14   -0.07    0.00    0.04   -0.02    0.00    0.00      -0.17    0.72   -0.26
#  56   -0.09   -0.05    0.00    0.04   -0.01    0.00    0.00      -0.12    0.80   -0.26
#  57   -0.36   -0.46    0.20    0.69   -0.10    0.00    0.00      -0.02    1.83   -0.26
#  58   -0.22   -0.80    0.74    0.78   -0.11    0.00    0.00       0.38    1.84   -0.26
#  59   -2.35   -1.69    4.37    0.52   -0.12    0.00    0.00       0.74    1.27   -0.28
#  60   -4.94   -0.65    0.62    1.59   -0.07    0.00    0.00      -3.45    5.36   -0.22
#  61  -25.56   -0.15    0.03    5.76    0.22    0.00    0.00     -19.71   15.36    0.58
#  62   -1.69   -0.22    0.02    0.56   -0.07    0.00    0.00      -1.40    2.26   -0.28

@<TRIPOS>MOLECULE
          T530751        88
   62    65     0     0     0



@<TRIPOS>ATOM
      1 C1          7.8094    -8.8254    96.8906 C.3        1           0.0241
      2 O1          6.4628    -8.3591    96.7845 O.3        1          -0.3156
      3 C2          6.2742    -7.1459    96.2018 C.ar       1           0.1351
      4 C3          7.3623    -6.4218    95.7364 C.ar       1          -0.1985
      5 C4          7.1679    -5.1892    95.1440 C.ar       1          -0.0723
      6 C5          5.8900    -4.6768    95.0147 C.ar       1          -0.1501
      7 C6          4.8042    -5.3961    95.4780 C.ar       1          -0.0644
      8 C7          3.4130    -4.8345    95.3359 C.3        1          -0.0843
      9 C8          2.8185    -5.2772    93.9974 C.3        1           0.0883
     10 N1          3.6583    -4.7839    92.9031 N.pl3      1          -0.6806
     11 C9          3.3217    -5.0586    91.6046 C.cat      1           0.7274
     12 N2          2.0819    -5.3946    91.3370 N.pl3      1          -0.6098
     13 H1          1.4378    -5.4401    92.0608 H          1           0.4419
     14 C10         1.6798    -5.6783    90.0797 C.2        1           0.3900
     15 N3          0.4328    -6.0124    89.8304 N.2        1          -0.4803
     16 C11        -0.5083    -6.2068    90.9361 C.3        1           0.0818
     17 C12        -0.0083    -7.3097    91.8333 C.ar       1          -0.0969
     18 C13        -0.3113    -7.2945    93.1819 C.ar       1          -0.0910
     19 C14         0.1475    -8.3061    94.0048 C.ar       1          -0.1134
     20 C15         0.9087    -9.3332    93.4790 C.ar       1          -0.1056
     21 C16         1.2110    -9.3488    92.1301 C.ar       1          -0.1160
     22 C17         0.7486    -8.3394    91.3065 C.ar       1          -0.1140
     23 C18         2.6759    -5.6035    88.9902 C.ar       1          -0.0846
     24 C19         2.3383    -5.8810    87.6682 C.ar       1          -0.0888
     25 C20         3.3060    -5.7965    86.6860 C.ar       1           0.1110
     26 O2          2.9835    -6.0662    85.3921 O.3        1          -0.2912
     27 C21         3.1225    -7.4205    84.9576 C.3        1           0.0179
     28 C22         4.6135    -5.4351    87.0158 C.ar       1           0.1722
     29 O3          5.5574    -5.3542    86.0420 O.3        1          -0.2847
     30 C23         5.7152    -4.0899    85.3949 C.3        1           0.0164
     31 C24         4.9546    -5.1581    88.3290 C.ar       1          -0.1915
     32 C25         3.9913    -5.2405    89.3215 C.ar       1           0.1488
     33 N4          4.2877    -4.9652    90.6496 N.pl3      1          -0.5925
     34 C26         4.9928    -6.6321    96.0661 C.ar       1          -0.1468
     35 H2          7.8184    -9.8027    97.3733 H          1           0.1065
     36 H3          8.2449    -8.9079    95.8949 H          1           0.0589
     37 H4          8.3919    -8.1215    97.4849 H          1           0.0599
     38 H5          8.3606    -6.8213    95.8374 H          1           0.1338
     39 H6          8.0146    -4.6251    94.7819 H          1           0.1313
     40 H7          5.7401    -3.7129    94.5513 H          1           0.1259
     41 H8          2.7881    -5.2015    96.1501 H          1           0.0959
     42 H9          3.4552    -3.7460    95.3725 H          1           0.0966
     43 H10         2.7764    -6.3658    93.9609 H          1           0.0973
     44 H11         1.8121    -4.8710    93.8947 H          1           0.0978
     45 H12         4.4527    -4.2627    93.0983 H          1           0.4400
     46 H13        -0.5926    -5.2831    91.5084 H          1           0.0393
     47 H14        -1.4861    -6.4780    90.5378 H          1           0.1175
     48 H15        -0.9061    -6.4922    93.5927 H          1           0.1281
     49 H16        -0.0888    -8.2939    95.0586 H          1           0.1303
     50 H17         1.2677   -10.1231    94.1220 H          1           0.1289
     51 H18         1.8060   -10.1510    91.7194 H          1           0.1262
     52 H19         0.9817    -8.3537    90.2520 H          1           0.1086
     53 H20         1.3270    -6.1606    87.4124 H          1           0.1701
     54 H21         2.8336    -7.4972    83.9094 H          1           0.1132
     55 H22         4.1600    -7.7342    85.0725 H          1           0.0634
     56 H23         2.4800    -8.0629    85.5596 H          1           0.0637
     57 H24         6.4989    -4.1631    84.6408 H          1           0.0637
     58 H25         4.7773    -3.8062    84.9178 H          1           0.0636
     59 H26         5.9903    -3.3360    86.1325 H          1           0.1152
     60 H27         5.9678    -4.8793    88.5785 H          1           0.1614
     61 H28         5.1893    -4.7087    90.8992 H          1           0.4491
     62 H29         4.1439    -7.1956    96.4239 H          1           0.1322
@<TRIPOS>BOND
     1    1    2 1
     2    1   35 1
     3    1   36 1
     4    1   37 1
     5    2    3 1
     6    3   34 ar
     7    3    4 ar
     8    4    5 ar
     9    4   38 1
    10    5    6 ar
    11    5   39 1
    12    6    7 ar
    13    6   40 1
    14    7    8 1
    15    7   34 ar
    16    8    9 1
    17    8   41 1
    18    8   42 1
    19    9   10 1
    20    9   43 1
    21    9   44 1
    22   10   11 1
    23   10   45 1
    24   11   33 1
    25   11   12 2
    26   12   13 1
    27   12   14 1
    28   14   15 2
    29   14   23 1
    30   15   16 1
    31   16   17 1
    32   16   46 1
    33   16   47 1
    34   17   22 ar
    35   17   18 ar
    36   18   19 ar
    37   18   48 1
    38   19   20 ar
    39   19   49 1
    40   20   21 ar
    41   20   50 1
    42   21   22 ar
    43   21   51 1
    44   22   52 1
    45   23   32 ar
    46   23   24 ar
    47   24   25 ar
    48   24   53 1
    49   25   26 1
    50   25   28 ar
    51   26   27 1
    52   27   54 1
    53   27   55 1
    54   27   56 1
    55   28   29 1
    56   28   31 ar
    57   29   30 1
    58   30   57 1
    59   30   58 1
    60   30   59 1
    61   31   32 ar
    62   31   60 1
    63   32   33 1
    64   33   61 1
    65   34   62 1
##########                 Name:              T537158
##########          Protonation:                   25
##########               SMILES:   C[NH+]([C@H]1CCN(CC1)c2[nH+]ccc(c2)NC(=O)c3cc(ccc3)F)Cc4ccc(cc4)C#N
##########            Long Name:   -[4-[(3-fluorobenzoyl)amino]pyridin-1-ium-2-yl]-4-piperidyl]-methyl-ammonium
##########          FlexRecCode: 1
##########               Number:                  317
##########   Ligand Source File: /raidb/db2/rgc/tcams/tcams-0001602.db2.gz
##########           GlobalRank: 306
##########                 Rank:                    1
##########               Setnum:                   85
##########             Matchnum:                   95
##########                Cloud:                    1
##########        Electrostatic:           -38.260738
##########        Van der Waals:           -32.961864
##########  Ligand Polar Desolv:            11.257161
########## Ligand Apolar Desolv:            -5.129246
##########      Internal Energy:             0.000000
##########      Receptor Energy: 0.0
########## Receptor Desolvation:             0.000000
########## Receptor Hydrophobic:             0.000000
##########         Total Energy: -65.09
##########        Ligand Charge:             2.000000
##########            Arbitrary:    +999.9990
##########     heavy atom count:   33
##########           pose count:    1
##########        Ligand Energy:             0.000000
# num electro vdwattr vdwrepu polsolv apolsol rdesolv rhydroe totalscore fullpol fullapo
#   1    0.20   -1.40    0.96   -1.02   -0.13    0.00    0.00      -1.38   -3.48   -0.44
#   2    4.15   -1.13    0.38   -4.80    0.06    0.00    0.00      -1.35  -17.62    0.21
#   3  -14.57   -0.06    0.00    7.08    0.17    0.00    0.00      -7.37   22.28    0.54
#   4   -0.42   -0.50    0.04    0.54   -0.08    0.00    0.00      -0.42    2.23   -0.34
#   5    1.63   -1.57    0.37   -0.80   -0.12    0.00    0.00      -0.50   -2.21   -0.34
#   6    0.42   -1.94    0.68   -1.04   -0.14    0.00    0.00      -2.01   -2.67   -0.36
#   7    0.35   -2.99    2.38   -1.38   -0.23    0.00    0.00      -1.86   -2.71   -0.45
#   8   -0.46   -2.88    1.34   -1.36   -0.25    0.00    0.00      -3.61   -2.14   -0.40
#   9    2.05   -3.71    3.19   -1.49   -0.25    0.00    0.00      -0.22   -2.72   -0.45
#  10    2.84   -2.52    1.03   -1.15   -0.21    0.00    0.00      -0.01   -2.56   -0.46
#  11   -2.54   -2.69    0.56    2.86   -1.06    0.00    0.00      -2.87    3.95   -1.46
#  12    4.09   -3.65    1.78   -3.71    0.55    0.00    0.00      -0.95   -4.83    0.71
#  13   -0.38   -0.36    0.02    0.42   -0.03    0.00    0.00      -0.32    2.25   -0.16
#  14    2.14   -0.37    0.02   -1.65   -0.05    0.00    0.00       0.09   -7.78   -0.22
#  15   -1.08   -0.20    0.00    0.47   -0.06    0.00    0.00      -0.87    3.81   -0.48
#  16    9.21   -0.42    0.02   -4.03    0.27    0.00    0.00       5.04  -25.19    1.69
#  17   -2.18   -0.32    0.02    0.75   -0.09    0.00    0.00      -1.82    4.17   -0.48
#  18    4.40   -0.66    0.14   -1.87   -0.05    0.00    0.00       1.97   -8.13   -0.22
#  19   -6.16   -0.60    0.05    3.77   -0.39    0.00    0.00      -3.33   19.39   -2.01
#  20    2.29   -0.92    0.18   -1.96   -0.10    0.00    0.00      -0.51   -8.10   -0.43
#  21   -2.09   -1.47    0.70    2.32   -0.20    0.00    0.00      -0.74    7.95   -0.68
#  22    4.00   -1.54    0.29   -6.60    0.58    0.00    0.00      -3.27  -18.67    1.64
#  23   -2.41   -1.53    0.29    4.56   -0.23    0.00    0.00       0.69   12.96   -0.64
#  24    1.21   -1.40    0.32   -3.15    0.10    0.00    0.00      -2.92  -10.13    0.33
#  25    0.85   -1.47    0.22   -1.00   -0.16    0.00    0.00      -1.57   -2.50   -0.41
#  26    1.03   -1.76    0.52   -0.49   -0.20    0.00    0.00      -0.90   -1.08   -0.44
#  27    1.04   -2.28    0.92   -1.07   -0.25    0.00    0.00      -1.65   -1.98   -0.47
#  28    0.74   -2.47    0.66   -1.41   -0.27    0.00    0.00      -2.75   -2.38   -0.46
#  29   -0.78   -2.07    0.32   -0.04   -0.20    0.00    0.00      -2.77   -0.06   -0.34
#  30    1.04   -2.21    1.18   -1.01   -0.30    0.00    0.00      -1.31   -1.63   -0.48
#  31    0.56   -1.58    0.18   -0.99   -0.23    0.00    0.00      -2.05   -1.96   -0.45
#  32    1.48   -1.43    0.48   -2.55   -0.13    0.00    0.00      -2.16   -7.80   -0.41
#  33   -2.33   -0.83    0.09    1.95   -0.25    0.00    0.00      -1.38    7.50   -0.97
#  34    7.49   -0.57    0.03   -3.80    0.19    0.00    0.00       3.33  -19.61    0.96
#  35   -7.11   -0.01    0.00    1.59    0.03    0.00    0.00      -5.49   20.18    0.41
#  36   -0.34   -0.13    0.01    0.91   -0.03    0.00    0.00       0.41    7.34   -0.28
#  37   -0.38   -0.49    0.30    1.98   -0.06    0.00    0.00       1.35    6.73   -0.22
#  38   -0.43   -1.36    4.03    1.16   -0.06    0.00    0.00       3.34    3.81   -0.21
#  39   -2.57   -0.11    0.00    1.07   -0.02    0.00    0.00      -1.63    9.88   -0.20
#  40   -0.82   -0.09    0.00    0.75   -0.02    0.00    0.00      -0.17    9.32   -0.28
#  41   -0.53   -0.23    0.03    1.68   -0.06    0.00    0.00       0.89    8.05   -0.28
#  42   -0.75   -0.61    0.36    1.03   -0.13    0.00    0.00      -0.10    2.22   -0.28
#  43   -4.61   -1.00    0.87    1.28   -0.15    0.00    0.00      -3.60    2.37   -0.28
#  44   -5.23   -0.44    0.09    3.46   -0.11    0.00    0.00      -2.24    8.71   -0.28
#  45   -1.35   -0.04    0.00    0.39   -0.01    0.00    0.00      -1.01    9.63   -0.28
#  46   -2.25   -0.24    0.03    1.15   -0.07    0.00    0.00      -1.38    4.94   -0.28
#  47   -0.53   -0.09    0.00    0.70   -0.02    0.00    0.00       0.05    6.39   -0.22
#  48   -0.80   -0.06    0.00    0.24   -0.01    0.00    0.00      -0.62    4.84   -0.20
#  49   -0.53   -0.04    0.00    0.20   -0.01    0.00    0.00      -0.37    5.46   -0.28
#  50   -2.48   -0.15    0.01    0.85   -0.03    0.00    0.00      -1.79    5.31   -0.20
#  51   -1.20   -0.05    0.00    0.23   -0.01    0.00    0.00      -1.03    5.55   -0.28
#  52   -2.80   -0.14    0.01    1.13   -0.03    0.00    0.00      -1.84    7.45   -0.22
#  53   -4.36   -0.82    1.16    1.38   -0.07    0.00    0.00      -2.72    5.16   -0.28
#  54   -1.80   -0.14    0.01    1.32   -0.03    0.00    0.00      -0.63    9.69   -0.20
#  55   -3.74   -0.02    0.00    4.08    0.12    0.00    0.00       0.44   15.34    0.46
#  56   -1.83   -0.28    0.03    2.21   -0.06    0.00    0.00       0.06    7.74   -0.22
#  57   -2.41   -0.62    0.36    2.41   -0.14    0.00    0.00      -0.40    4.84   -0.28
#  58   -0.36   -0.83    0.56    1.22   -0.17    0.00    0.00       0.42    2.01   -0.28
#  59   -1.00   -0.38    0.10    0.43   -0.09    0.00    0.00      -0.95    1.23   -0.27
#  60   -1.86   -0.35    0.06    0.83   -0.07    0.00    0.00      -1.39    2.53   -0.22
#  61   -4.00   -0.14    0.00    1.25   -0.04    0.00    0.00      -2.93    9.27   -0.28

@<TRIPOS>MOLECULE
          T537158        25
   61    64     0     0     0



@<TRIPOS>ATOM
      1 C1          4.3680    -5.3505    87.4908 C.3        1          -0.0612
      2 N1          5.6047    -5.6311    88.2324 N.4        1          -0.3835
      3 H1          5.8986    -4.7999    88.7232 H          1           0.4249
      4 C2          6.6564    -6.0426    87.2930 C.3        1           0.0371
      5 C3          6.9056    -4.9355    86.3015 C.ar       1          -0.1449
      6 C4          6.1828    -4.8915    85.1225 C.ar       1          -0.0933
      7 C5          6.4057    -3.8809    84.2104 C.ar       1          -0.0676
      8 C6          7.3632    -2.9007    84.4794 C.ar       1           0.0304
      9 C7          8.0888    -2.9511    85.6715 C.ar       1          -0.0677
     10 C8          7.8521    -3.9645    86.5768 C.ar       1          -0.0911
     11 C9          7.6003    -1.8490    83.5370 C.1        1           0.2178
     12 N2          7.7885    -1.0146    82.7893 N.1        1          -0.3605
     13 C10         5.3618    -6.7102    89.1991 C.3        1           0.0244
     14 C11         3.9840    -6.5218    89.8381 C.3        1          -0.1637
     15 C12         3.7198    -7.6678    90.8197 C.3        1           0.1087
     16 N3          4.8279    -7.7309    91.7825 N.pl3      1          -0.6078
     17 C13         6.2028    -7.8215    91.2721 C.3        1           0.1192
     18 C14         6.4391    -6.6737    90.2854 C.3        1          -0.1659
     19 C15         4.5803    -7.7047    93.1501 C.ar       1           0.4621
     20 C16         5.4491    -8.3527    94.0185 C.ar       1          -0.2424
     21 C17         5.1885    -8.3175    95.3842 C.ar       1           0.3195
     22 N4          6.0362    -8.9548    96.2901 N.am       1          -0.6646
     23 C18         6.7166   -10.0564    95.9161 C.2        1           0.5760
     24 O1          6.5915   -10.4945    94.7891 O.2        1          -0.4847
     25 C19         7.6148   -10.7319    96.8762 C.ar       1          -0.1296
     26 C20         8.2073   -10.0064    97.9114 C.ar       1          -0.0949
     27 C21         9.0447   -10.6415    98.8047 C.ar       1          -0.0908
     28 C22         9.2991   -11.9955    98.6774 C.ar       1          -0.1075
     29 C23         8.7155   -12.7224    97.6524 C.ar       1           0.1049
     30 F1          8.9686   -14.0441    97.5338 F          1          -0.1224
     31 C24         7.8696   -12.0986    96.7548 C.ar       1          -0.0853
     32 C25         4.0576    -7.6276    95.8260 C.ar       1          -0.1722
     33 C26         3.2431    -7.0095    94.9029 C.ar       1           0.1716
     34 N5          3.5209    -7.0572    93.6126 N.ar       1          -0.5161
     35 H2          2.9313    -6.6090    92.9862 H          1           0.4379
     36 H3          4.0507    -6.2483    86.9608 H          1           0.1284
     37 H4          3.5877    -5.0451    88.1879 H          1           0.1260
     38 H5          4.5483    -4.5497    86.7736 H          1           0.1323
     39 H6          7.5739    -6.2509    87.8433 H          1           0.1413
     40 H7          6.3390    -6.9406    86.7629 H          1           0.1432
     41 H8          5.4425    -5.6502    84.9157 H          1           0.1436
     42 H9          5.8413    -3.8480    83.2902 H          1           0.1496
     43 H10         8.8308    -2.1961    85.8857 H          1           0.1487
     44 H11         8.4096    -4.0025    87.5011 H          1           0.1412
     45 H12         5.3958    -7.6716    88.6862 H          1           0.1482
     46 H13         3.9575    -5.5720    90.3720 H          1           0.0989
     47 H14         3.2194    -6.5246    89.0613 H          1           0.1185
     48 H15         2.7849    -7.4866    91.3501 H          1           0.0957
     49 H16         3.6561    -8.6092    90.2738 H          1           0.1119
     50 H17         6.9062    -7.7415    92.1009 H          1           0.1172
     51 H18         6.3415    -8.7753    90.7631 H          1           0.1067
     52 H19         7.4218    -6.7846    89.8271 H          1           0.1183
     53 H20         6.3895    -5.7225    90.8151 H          1           0.1001
     54 H21         6.3140    -8.8765    93.6390 H          1           0.1817
     55 H22         6.1361    -8.6052    97.1893 H          1           0.4314
     56 H23         8.0104    -8.9493    98.0125 H          1           0.1320
     57 H24         9.5034   -10.0804    99.6054 H          1           0.1497
     58 H25         9.9556   -12.4876    99.3796 H          1           0.1523
     59 H26         7.4105   -12.6663    95.9591 H          1           0.1547
     60 H27         3.8241    -7.5798    96.8794 H          1           0.1954
     61 H28         2.3669    -6.4749    95.2393 H          1           0.2160
@<TRIPOS>BOND
     1    1    2 1
     2    1   36 1
     3    1   37 1
     4    1   38 1
     5    2    3 1
     6    2    4 1
     7    2   13 1
     8    4    5 1
     9    4   39 1
    10    4   40 1
    11    5   10 ar
    12    5    6 ar
    13    6    7 ar
    14    6   41 1
    15    7    8 ar
    16    7   42 1
    17    8    9 ar
    18    8   11 1
    19    9   10 ar
    20    9   43 1
    21   10   44 1
    22   11   12 3
    23   13   18 1
    24   13   14 1
    25   13   45 1
    26   14   15 1
    27   14   46 1
    28   14   47 1
    29   15   16 1
    30   15   48 1
    31   15   49 1
    32   16   17 1
    33   16   19 1
    34   17   18 1
    35   17   50 1
    36   17   51 1
    37   18   52 1
    38   18   53 1
    39   19   34 ar
    40   19   20 ar
    41   20   21 ar
    42   20   54 1
    43   21   22 1
    44   21   32 ar
    45   22   23 am
    46   22   55 1
    47   23   24 2
    48   23   25 1
    49   25   31 ar
    50   25   26 ar
    51   26   27 ar
    52   26   56 1
    53   27   28 ar
    54   27   57 1
    55   28   29 ar
    56   28   58 1
    57   29   30 1
    58   29   31 ar
    59   31   59 1
    60   32   33 ar
    61   32   60 1
    62   33   34 ar
    63   33   61 1
    64   34   35 1
##########                 Name:              T530825
##########          Protonation:                   50
##########               SMILES:   COCC[NH2+]Cc1cc(ccc1)c2cc(ccc2)C[NH2+][C@H]3CC[NH+](CC3)Cc4ccccc4
##########            Long Name:   um-4-yl)-[[3-[3-[(2-methoxyethylammonio)methyl]phenyl]phenyl]methyl]ammonium
##########          FlexRecCode: 1
##########               Number:                  153
##########   Ligand Source File: /raidb/db2/rgc/tcams/tcams-0000745.db2.gz
##########           GlobalRank: 307
##########                 Rank:                    1
##########               Setnum:                    1
##########             Matchnum:                 1987
##########                Cloud:                    1
##########        Electrostatic:           -38.734055
##########        Van der Waals:           -23.919090
##########  Ligand Polar Desolv:             1.642348
########## Ligand Apolar Desolv:            -4.056830
##########      Internal Energy:             0.000000
##########      Receptor Energy: 0.0
########## Receptor Desolvation:             0.000000
########## Receptor Hydrophobic:             0.000000
##########         Total Energy: -65.07
##########        Ligand Charge:             3.000000
##########            Arbitrary:    +999.9990
##########     heavy atom count:   33
##########           pose count:    1
##########        Ligand Energy:             0.000000
# num electro vdwattr vdwrepu polsolv apolsol rdesolv rhydroe totalscore fullpol fullapo
#   1   -0.16   -0.31    0.02    0.14    0.01    0.00    0.00      -0.31    0.76    0.03
#   2    5.12   -0.38    0.01   -2.40    0.24    0.00    0.00       2.60  -13.00    1.32
#   3   -0.52   -0.90    0.23   -0.05   -0.04    0.00    0.00      -1.28   -0.16   -0.13
#   4    0.05   -0.53    0.04    0.40   -0.11    0.00    0.00      -0.16    1.51   -0.43
#   5   11.42   -0.54    0.03   -4.97    0.17    0.00    0.00       6.11  -21.96    0.73
#   6   -6.55   -0.01    0.00    1.67    0.05    0.00    0.00      -4.84   19.56    0.54
#   7  -14.06   -0.02    0.00    3.51    0.09    0.00    0.00     -10.48   21.38    0.57
#   8   -0.75   -0.49    0.02    0.72   -0.12    0.00    0.00      -0.62    2.54   -0.42
#   9    2.02   -0.97    0.10   -1.64   -0.12    0.00    0.00      -0.62   -5.19   -0.37
#  10    1.26   -1.42    0.19   -2.02   -0.18    0.00    0.00      -2.17   -4.97   -0.45
#  11    1.45   -1.53    0.19   -2.86   -0.22    0.00    0.00      -2.96   -6.25   -0.47
#  12    0.82   -1.31    0.13   -1.38   -0.17    0.00    0.00      -1.90   -3.65   -0.44
#  13    0.33   -1.35    0.31   -0.93   -0.13    0.00    0.00      -1.78   -2.90   -0.41
#  14    0.50   -1.46    0.79   -1.27   -0.12    0.00    0.00      -1.56   -4.60   -0.42
#  15    0.15   -1.40    0.32   -1.02   -0.13    0.00    0.00      -2.08   -3.32   -0.41
#  16    0.33   -1.45    0.21   -1.98   -0.17    0.00    0.00      -3.07   -5.21   -0.44
#  17    0.94   -1.68    0.39   -2.88   -0.19    0.00    0.00      -3.43   -7.01   -0.47
#  18    0.85   -1.38    0.27   -1.53   -0.15    0.00    0.00      -1.94   -4.67   -0.45
#  19    0.89   -0.82    0.11   -1.23   -0.09    0.00    0.00      -1.15   -5.03   -0.37
#  20   -0.18   -0.26    0.01    0.50   -0.06    0.00    0.00       0.02    3.29   -0.40
#  21    2.57   -0.24    0.01   -3.32    0.07    0.00    0.00      -0.91  -30.25    0.60
#  22   -3.05   -0.01    0.00    2.29    0.05    0.00    0.00      -0.72   28.22    0.56
#  23   -1.75   -0.01    0.00    1.84    0.02    0.00    0.00       0.10   29.37    0.34
#  24   -0.05   -0.08    0.00    0.17   -0.01    0.00    0.00       0.03    3.36   -0.27
#  25    0.29   -0.08    0.00   -0.51   -0.01    0.00    0.00      -0.31  -10.34   -0.22
#  26    0.08   -0.13    0.00   -0.14   -0.03    0.00    0.00      -0.22   -1.82   -0.37
#  27    2.38   -0.17    0.00   -1.72    0.02    0.00    0.00       0.51  -21.42    0.27
#  28   -1.63    0.00    0.00    0.98    0.02    0.00    0.00      -0.64   24.90    0.54
#  29   -0.47   -0.27    0.01    0.57   -0.06    0.00    0.00      -0.21    3.65   -0.36
#  30    2.98   -0.61    0.03   -1.05   -0.08    0.00    0.00       1.27   -4.19   -0.33
#  31    1.54   -1.10    0.16   -1.11   -0.14    0.00    0.00      -0.66   -3.65   -0.45
#  32    3.41   -3.18    2.50   -2.26   -0.19    0.00    0.00       0.28   -5.52   -0.47
#  33    2.25   -2.20    0.81   -2.18   -0.20    0.00    0.00      -1.51   -5.01   -0.47
#  34    3.10   -1.48    0.22   -2.15   -0.19    0.00    0.00      -0.48   -5.45   -0.47
#  35    2.51   -0.95    0.10   -0.84   -0.11    0.00    0.00       0.71   -2.76   -0.36
#  36    0.29   -0.14    0.00   -0.23   -0.03    0.00    0.00      -0.10   -2.67   -0.33
#  37    0.77   -0.07    0.00   -0.42   -0.01    0.00    0.00       0.27   -9.01   -0.24
#  38    0.40   -1.06    0.23   -0.87   -0.10    0.00    0.00      -1.40   -3.56   -0.42
#  39   -0.39   -0.04    0.00    0.07   -0.01    0.00    0.00      -0.37    1.72   -0.28
#  40   -0.13   -0.11    0.01    0.05   -0.03    0.00    0.00      -0.21    0.43   -0.28
#  41   -0.26   -0.14    0.01    0.30   -0.05    0.00    0.00      -0.14    1.79   -0.28
#  42   -2.81   -0.55    0.28    1.22   -0.09    0.00    0.00      -1.95    3.93   -0.28
#  43   -1.36   -0.67    1.03    0.43   -0.07    0.00    0.00      -0.65    1.65   -0.28
#  44   -3.98   -0.25    0.03    2.22   -0.07    0.00    0.00      -2.05    8.95   -0.28
#  45   -2.36   -0.10    0.00    0.50   -0.02    0.00    0.00      -1.98    5.72   -0.28
#  46   -3.46   -0.19    0.01    1.42   -0.05    0.00    0.00      -2.27    8.13   -0.28
#  47   -1.96   -0.15    0.01    0.96   -0.04    0.00    0.00      -1.19    6.59   -0.28
#  48   -2.81   -0.51    0.22    1.86   -0.10    0.00    0.00      -1.34    4.99   -0.28
#  49   -2.16   -0.39    0.07    1.90   -0.12    0.00    0.00      -0.70    4.49   -0.28
#  50   -1.38   -0.24    0.02    2.09   -0.05    0.00    0.00       0.44    9.08   -0.22
#  51   -0.24   -0.32    0.17    1.12   -0.04    0.00    0.00       0.70    6.26   -0.22
#  52   -0.63   -0.29    0.03    1.12   -0.06    0.00    0.00       0.17    3.82   -0.22
#  53   -2.23   -0.49    0.25    0.89   -0.11    0.00    0.00      -1.69    2.32   -0.28
#  54   -2.50   -0.49    0.29    1.87   -0.08    0.00    0.00      -0.91    6.80   -0.28
#  55   -0.66   -0.08    0.00    0.96   -0.02    0.00    0.00       0.21   12.51   -0.22
#  56   -0.48   -0.06    0.00    0.58   -0.02    0.00    0.00       0.03    8.83   -0.28
#  57   -0.28   -0.02    0.00    0.22   -0.01    0.00    0.00      -0.08    9.92   -0.28
#  58   -0.14   -0.03    0.00    0.27   -0.01    0.00    0.00       0.10    9.57   -0.22
#  59   -0.15   -0.01    0.00    0.13   -0.01    0.00    0.00      -0.04    6.22   -0.28
#  60   -0.55   -0.08    0.01    1.08   -0.02    0.00    0.00       0.45   13.66   -0.22
#  61   -0.28   -0.03    0.00    0.30   -0.01    0.00    0.00      -0.02    9.90   -0.28
#  62   -1.98   -0.13    0.01    1.80   -0.04    0.00    0.00      -0.35   12.36   -0.28
#  63   -0.85   -0.07    0.00    0.51   -0.01    0.00    0.00      -0.42    9.35   -0.27
#  64   -0.84   -0.17    0.02    1.37   -0.05    0.00    0.00       0.32    7.00   -0.28
#  65   -5.70   -1.59    4.14    0.68   -0.14    0.00    0.00      -2.61    1.40   -0.28
#  66   -4.40   -0.55    0.29    0.19   -0.11    0.00    0.00      -4.58    0.51   -0.28
#  67   -4.68   -0.66    0.62    0.88   -0.09    0.00    0.00      -3.94    2.62   -0.28
#  68   -3.47   -0.22    0.03    2.03   -0.06    0.00    0.00      -1.68   10.28   -0.28
#  69   -1.38   -0.07    0.00    0.80   -0.01    0.00    0.00      -0.66   13.25   -0.23
#  70   -1.91   -0.04    0.00    0.20   -0.01    0.00    0.00      -1.75    4.88   -0.19
#  71   -0.43   -0.02    0.00    0.13   -0.01    0.00    0.00      -0.33    5.37   -0.28
#  72   -0.62   -0.02    0.00    0.19   -0.01    0.00    0.00      -0.46    7.19   -0.28
#  73   -0.83   -0.13    0.01    1.50   -0.03    0.00    0.00       0.52   11.76   -0.22

@<TRIPOS>MOLECULE
          T530825        50
   73    76     0     0     0



@<TRIPOS>ATOM
      1 C1          2.9734    -6.6470    89.4326 C.3        1           0.0292
      2 O1          3.1754    -6.6765    90.8470 O.3        1          -0.4052
      3 C2          3.0988    -5.3937    91.4719 C.3        1           0.0243
      4 C3          2.8289    -5.5703    92.9675 C.3        1          -0.0023
      5 N1          3.9192    -6.3460    93.5737 N.4        1          -0.5080
      6 H1          3.9732    -7.2518    93.1324 H          1           0.4358
      7 H2          4.7921    -5.8565    93.4450 H          1           0.4247
      8 C4          3.6600    -6.5155    95.0096 C.3        1           0.0406
      9 C5          4.7786    -7.3112    95.6315 C.ar       1          -0.1494
     10 C6          5.3272    -6.9068    96.8354 C.ar       1          -0.0789
     11 C7          6.3539    -7.6323    97.4118 C.ar       1          -0.1064
     12 C8          6.8365    -8.7653    96.7881 C.ar       1          -0.0810
     13 C9          6.2873    -9.1774    95.5759 C.ar       1          -0.0542
     14 C10         5.2498    -8.4453    95.0021 C.ar       1          -0.0825
     15 C11         6.8023   -10.3943    94.9005 C.ar       1          -0.0396
     16 C12         7.3223   -11.4450    95.6539 C.ar       1          -0.0728
     17 C13         7.7996   -12.5746    95.0207 C.ar       1          -0.1006
     18 C14         7.7624   -12.6649    93.6408 C.ar       1          -0.0829
     19 C15         7.2475   -11.6250    92.8882 C.ar       1          -0.1643
     20 C16         7.2099   -11.7309    91.3854 C.3        1           0.0388
     21 N2          8.4571   -11.1937    90.8252 N.4        1          -0.5143
     22 H3          8.5559   -10.2256    91.0918 H          1           0.4394
     23 H4          9.2401   -11.7218    91.1803 H          1           0.4121
     24 C17         8.4206   -11.2971    89.3604 C.3        1           0.0145
     25 C18         9.8452   -11.2117    88.8053 C.3        1          -0.1703
     26 C19        10.4382    -9.8427    89.1454 C.3        1          -0.0238
     27 N3          9.6140    -8.7861    88.5466 N.4        1          -0.3863
     28 H5          9.5531    -8.9323    87.5501 H          1           0.4355
     29 C20        10.2287    -7.4783    88.8114 C.3        1           0.0455
     30 C21         9.7011    -6.4668    87.8268 C.ar       1          -0.1773
     31 C22        10.3480    -6.2739    86.6204 C.ar       1          -0.0899
     32 C23         9.8642    -5.3459    85.7173 C.ar       1          -0.1069
     33 C24         8.7330    -4.6112    86.0203 C.ar       1          -0.0726
     34 C25         8.0856    -4.8047    87.2262 C.ar       1          -0.1105
     35 C26         8.5671    -5.7357    88.1276 C.ar       1          -0.1030
     36 C27         8.2661    -8.8164    89.1272 C.3        1          -0.0320
     37 C28         7.5897   -10.1460    88.7864 C.3        1          -0.1662
     38 C29         6.7625   -10.4928    93.5114 C.ar       1          -0.0909
     39 H6          3.0470    -7.6587    89.0339 H          1           0.1025
     40 H7          1.9851    -6.2417    89.2151 H          1           0.0590
     41 H8          3.7339    -6.0179    88.9700 H          1           0.0526
     42 H9          4.0418    -4.8649    91.3330 H          1           0.0748
     43 H10         2.2898    -4.8181    91.0222 H          1           0.1030
     44 H11         2.7706    -4.5918    93.4442 H          1           0.1475
     45 H12         1.8859    -6.0990    93.1066 H          1           0.1438
     46 H13         3.6016    -5.5370    95.4863 H          1           0.1412
     47 H14         2.7171    -7.0443    95.1488 H          1           0.1447
     48 H15         4.9527    -6.0209    97.3268 H          1           0.1414
     49 H16         6.7791    -7.3116    98.3513 H          1           0.1425
     50 H17         7.6385    -9.3310    97.2389 H          1           0.1293
     51 H18         4.8180    -8.7625    94.0643 H          1           0.1369
     52 H19         7.3521   -11.3754    96.7312 H          1           0.1380
     53 H20         8.2031   -13.3893    95.6037 H          1           0.1463
     54 H21         8.1373   -13.5505    93.1493 H          1           0.1399
     55 H22         7.1032   -12.7768    91.0976 H          1           0.1414
     56 H23         6.3640   -11.1604    91.0019 H          1           0.1522
     57 H24         7.9727   -12.2485    89.0733 H          1           0.1747
     58 H25        10.4577   -11.9949    89.2523 H          1           0.1380
     59 H26         9.8225   -11.3398    87.7231 H          1           0.1424
     60 H27        10.4608    -9.7158    90.2278 H          1           0.1193
     61 H28        11.4526    -9.7787    88.7518 H          1           0.1605
     62 H29         9.9842    -7.1607    89.8249 H          1           0.1353
     63 H30        11.3107    -7.5576    88.7064 H          1           0.1455
     64 H31        11.2317    -6.8478    86.3838 H          1           0.1333
     65 H32        10.3700    -5.1948    84.7752 H          1           0.1421
     66 H33         8.3554    -3.8857    85.3150 H          1           0.1422
     67 H34         7.2021    -4.2305    87.4631 H          1           0.1397
     68 H35         8.0590    -5.8896    89.0681 H          1           0.1267
     69 H36         8.3350    -8.7114    90.2099 H          1           0.1210
     70 H37         7.6770    -7.9947    88.7200 H          1           0.1613
     71 H38         7.5202   -10.2520    87.7036 H          1           0.1413
     72 H39         6.5898   -10.1673    89.2198 H          1           0.1396
     73 H40         6.3569    -9.6831    92.9231 H          1           0.1315
@<TRIPOS>BOND
     1    1    2 1
     2    1   39 1
     3    1   40 1
     4    1   41 1
     5    2    3 1
     6    3    4 1
     7    3   42 1
     8    3   43 1
     9    4    5 1
    10    4   44 1
    11    4   45 1
    12    5    6 1
    13    5    7 1
    14    5    8 1
    15    8    9 1
    16    8   46 1
    17    8   47 1
    18    9   14 ar
    19    9   10 ar
    20   10   11 ar
    21   10   48 1
    22   11   12 ar
    23   11   49 1
    24   12   13 ar
    25   12   50 1
    26   13   14 ar
    27   13   15 1
    28   14   51 1
    29   15   38 ar
    30   15   16 ar
    31   16   17 ar
    32   16   52 1
    33   17   18 ar
    34   17   53 1
    35   18   19 ar
    36   18   54 1
    37   19   20 1
    38   19   38 ar
    39   20   21 1
    40   20   55 1
    41   20   56 1
    42   21   22 1
    43   21   23 1
    44   21   24 1
    45   24   37 1
    46   24   25 1
    47   24   57 1
    48   25   26 1
    49   25   58 1
    50   25   59 1
    51   26   27 1
    52   26   60 1
    53   26   61 1
    54   27   28 1
    55   27   29 1
    56   27   36 1
    57   29   30 1
    58   29   62 1
    59   29   63 1
    60   30   35 ar
    61   30   31 ar
    62   31   32 ar
    63   31   64 1
    64   32   33 ar
    65   32   65 1
    66   33   34 ar
    67   33   66 1
    68   34   35 ar
    69   34   67 1
    70   35   68 1
    71   36   37 1
    72   36   69 1
    73   36   70 1
    74   37   71 1
    75   37   72 1
    76   38   73 1
##########                 Name:              T531706
##########          Protonation:                   88
##########               SMILES:   CCCCC[NH+]1CCC[C@@H]1CNS(=O)(=O)c2cccc(c2)C(=O)Nc3cccc(c3)C(F)(F)F
##########            Long Name:   yrrolidin-1-ium-2-yl]methylsulfamoyl]-N-[3-(trifluoromethyl)phenyl]benzamide
##########          FlexRecCode: 1
##########               Number:                  203
##########   Ligand Source File: /raidb/db2/rgc/tcams/tcams-0000863.db2.gz
##########           GlobalRank: 308
##########                 Rank:                    1
##########               Setnum:                  249
##########             Matchnum:                 2949
##########                Cloud:                    1
##########        Electrostatic:           -45.497787
##########        Van der Waals:           -32.100769
##########  Ligand Polar Desolv:            16.358267
########## Ligand Apolar Desolv:            -3.824448
##########      Internal Energy:             0.000000
##########      Receptor Energy: 0.0
########## Receptor Desolvation:             0.000000
########## Receptor Hydrophobic:             0.000000
##########         Total Energy: -65.06
##########        Ligand Charge:             1.000000
##########            Arbitrary:    +999.9990
##########     heavy atom count:   34
##########           pose count:    1
##########        Ligand Energy:             0.000000
# num electro vdwattr vdwrepu polsolv apolsol rdesolv rhydroe totalscore fullpol fullapo
#   1    0.30   -1.75    1.21   -0.96   -0.08    0.00    0.00      -1.28   -2.36   -0.19
#   2    0.31   -1.45    0.37   -1.09   -0.12    0.00    0.00      -1.99   -2.33   -0.25
#   3    0.33   -0.72    0.07   -1.00   -0.08    0.00    0.00      -1.40   -2.80   -0.22
#   4    0.56   -1.13    0.23   -1.59   -0.09    0.00    0.00      -2.02   -3.93   -0.22
#   5    0.12   -0.86    0.16   -0.26   -0.08    0.00    0.00      -0.91   -0.87   -0.25
#   6    7.85   -2.70    3.39   -4.68    0.17    0.00    0.00       4.04  -11.66    0.43
#   7  -17.39   -0.32    0.27    6.77    0.23    0.00    0.00     -10.44   16.54    0.56
#   8    0.32   -1.48    0.43    0.03   -0.17    0.00    0.00      -0.87    0.06   -0.39
#   9    3.60   -1.21    0.44   -1.50   -0.11    0.00    0.00       1.21   -3.98   -0.29
#  10    3.58   -0.65    0.05   -1.43   -0.09    0.00    0.00       1.46   -4.18   -0.25
#  11   -0.51   -1.48    0.61    0.58   -0.12    0.00    0.00      -0.92    1.56   -0.33
#  12   -2.47   -0.89    0.19    0.34   -0.09    0.00    0.00      -2.92    1.25   -0.33
#  13   33.91   -3.11    2.24   -7.72    0.40    0.00    0.00      25.71  -22.21    1.14
#  14  -51.86   -1.77    0.35    9.53   -0.05    0.00    0.00     -43.80   35.16   -0.20
#  15    5.61   -1.80    0.92   -1.82    0.46    0.00    0.00       3.38   -5.81    1.48
#  16   10.59   -0.29    0.01   -1.67    0.21    0.00    0.00       8.85  -11.61    1.44
#  17   23.88   -1.90    1.03   -2.69   -0.08    0.00    0.00      20.24   -9.34   -0.28
#  18    0.05   -3.22    2.40    0.13   -0.17    0.00    0.00      -0.81    0.34   -0.45
#  19    5.49   -2.27    0.82   -1.02   -0.20    0.00    0.00       2.83   -2.39   -0.47
#  20    0.91   -1.52    0.46   -0.10   -0.17    0.00    0.00      -0.43   -0.27   -0.44
#  21    4.63   -1.23    0.45   -0.54   -0.11    0.00    0.00       3.20   -2.00   -0.41
#  22   -1.37   -1.22    0.54   -0.02   -0.10    0.00    0.00      -2.17   -0.08   -0.42
#  23  -11.94   -1.01    0.12    1.03   -0.19    0.00    0.00     -11.99    3.52   -0.64
#  24    9.48   -1.55    0.58   -0.10    0.09    0.00    0.00       8.50   -0.36    0.33
#  25   10.90   -0.96    0.05   -2.21    0.57    0.00    0.00       8.34   -6.41    1.64
#  26   -1.73   -1.22    0.11    0.35   -0.25    0.00    0.00      -2.74    0.93   -0.68
#  27    1.74   -1.73    0.26   -0.44   -0.23    0.00    0.00      -0.39   -0.89   -0.46
#  28    1.60   -1.89    0.29   -0.49   -0.25    0.00    0.00      -0.74   -0.90   -0.47
#  29    0.93   -1.57    0.26   -0.29   -0.21    0.00    0.00      -0.87   -0.61   -0.44
#  30    1.26   -1.33    0.15   -0.19   -0.15    0.00    0.00      -0.25   -0.48   -0.37
#  31    0.51   -1.26    0.13   -0.12   -0.13    0.00    0.00      -0.88   -0.35   -0.38
#  32   -3.40   -0.94    0.09   -0.09   -0.03    0.00    0.00      -4.37   -0.19   -0.07
#  33    1.38   -0.88    0.06   -0.05   -0.25    0.00    0.00       0.25   -0.08   -0.44
#  34    0.14   -2.04    1.13    0.19   -0.24    0.00    0.00      -0.82    0.37   -0.47
#  35    1.60   -0.59    0.03    0.11   -0.19    0.00    0.00       0.96    0.27   -0.48
#  36   -0.10   -1.27    1.65    0.35   -0.13    0.00    0.00       0.51    0.78   -0.28
#  37   -0.11   -0.21    0.01    0.15   -0.07    0.00    0.00      -0.22    0.62   -0.28
#  38   -0.10   -0.66    1.18    0.02   -0.07    0.00    0.00       0.37    0.09   -0.28
#  39   -0.19   -0.52    0.15    0.49   -0.13    0.00    0.00      -0.21    1.04   -0.28
#  40   -0.14   -0.80    0.43    0.40   -0.13    0.00    0.00      -0.24    0.83   -0.28
#  41   -0.16   -0.17    0.01    0.25   -0.04    0.00    0.00      -0.11    1.58   -0.28
#  42   -0.21   -0.19    0.03    0.28   -0.04    0.00    0.00      -0.13    1.95   -0.28
#  43   -0.41   -0.52    0.32    1.08   -0.09    0.00    0.00       0.38    3.01   -0.25
#  44   -0.31   -0.83    0.94    1.09   -0.11    0.00    0.00       0.77    2.72   -0.28
#  45   -0.54   -0.23    0.05    0.93   -0.04    0.00    0.00       0.16    5.24   -0.22
#  46   -0.59   -0.16    0.02    0.78   -0.03    0.00    0.00       0.02    5.51   -0.22
#  47   -2.87   -0.69    0.91    1.75   -0.09    0.00    0.00      -1.00    4.86   -0.26
#  48   -4.98   -0.57    0.17    2.39   -0.12    0.00    0.00      -3.11    5.39   -0.28
#  49   -1.99   -0.53    0.43    0.45   -0.07    0.00    0.00      -1.71    1.94   -0.28
#  50   -3.26   -0.54    0.25    0.86   -0.10    0.00    0.00      -2.79    2.43   -0.28
#  51   -1.86   -0.09    0.00    0.19   -0.02    0.00    0.00      -1.79    2.35   -0.26
#  52   -3.44   -0.26    0.03    0.62   -0.08    0.00    0.00      -3.14    2.12   -0.28
#  53   -7.15   -1.18    1.55    2.48   -0.13    0.00    0.00      -4.42    5.53   -0.28
#  54   -1.48   -0.09    0.00    0.36   -0.02    0.00    0.00      -1.22    4.05   -0.20
#  55   -2.74   -0.27    0.06    0.91   -0.05    0.00    0.00      -2.08    4.21   -0.23
#  56  -20.96   -0.19    0.07    3.99    0.27    0.00    0.00     -16.81    9.15    0.63
#  57   -4.97   -1.37    3.03    1.89   -0.11    0.00    0.00      -1.53    4.66   -0.27
#  58   -5.40   -0.55    0.14    2.16   -0.13    0.00    0.00      -3.77    4.80   -0.28
#  59   -4.35   -0.29    0.03    1.07   -0.06    0.00    0.00      -3.60    3.87   -0.22
#  60   -3.53   -0.11    0.01    0.04   -0.03    0.00    0.00      -3.62    0.33   -0.25
#  61   -7.10   -0.01    0.00    1.26    0.08    0.00    0.00      -5.77    7.05    0.46
#  62   -2.43   -0.45    0.13    1.44   -0.11    0.00    0.00      -1.42    3.51   -0.28
#  63   -3.01   -0.48    0.08    1.42   -0.15    0.00    0.00      -2.14    2.73   -0.28
#  64   -1.58   -0.32    0.05    0.36   -0.09    0.00    0.00      -1.58    1.01   -0.25
#  65   -0.47   -0.28    0.06   -0.07   -0.05    0.00    0.00      -0.81   -0.30   -0.22

@<TRIPOS>MOLECULE
          T531706        88
   65    67     0     0     0



@<TRIPOS>ATOM
      1 C1          2.8596    -6.5676    82.5532 C.3        1          -0.1585
      2 C2          3.7945    -5.4867    83.0996 C.3        1          -0.1253
      3 C3          4.4055    -5.9606    84.4198 C.3        1          -0.1195
      4 C4          5.3403    -4.8796    84.9663 C.3        1          -0.1471
      5 C5          5.9512    -5.3536    86.2865 C.3        1          -0.0276
      6 N1          6.8487    -4.3157    86.8111 N.4        1          -0.3850
      7 H1          6.3435    -3.4578    86.9744 H          1           0.4308
      8 C6          7.9763    -4.0879    85.8880 C.3        1          -0.0116
      9 C7          8.7385    -5.4078    86.0674 C.3        1          -0.1412
     10 C8          8.7845    -5.4974    87.5981 C.3        1          -0.1427
     11 C9          7.5076    -4.7744    88.0474 C.3        1           0.0157
     12 C10         6.5933    -5.7391    88.8052 C.3        1           0.0963
     13 N2          5.3439    -5.0570    89.1517 N.pl3      1          -1.1154
     14 S1          4.1610    -5.8667    89.9811 S.o2       1           2.6946
     15 O1          2.9363    -5.2084    89.6878 O.2        1          -0.9292
     16 O2          4.3619    -7.2504    89.7277 O.2        1          -0.9410
     17 C11         4.4668    -5.6196    91.6987 C.ar       1          -0.6900
     18 C12         3.8955    -4.5427    92.3536 C.ar       1          -0.0013
     19 C13         4.1307    -4.3411    93.7018 C.ar       1          -0.1387
     20 C14         4.9378    -5.2138    94.4026 C.ar       1          -0.0256
     21 C15         5.5166    -6.3022    93.7481 C.ar       1          -0.1484
     22 C16         5.2705    -6.5030    92.3887 C.ar       1           0.0445
     23 C17         6.3825    -7.2410    94.4924 C.2        1           0.5570
     24 O3          7.2482    -7.8628    93.9079 O.2        1          -0.5015
     25 N3          6.2123    -7.4075    95.8189 N.am       1          -0.6660
     26 C18         7.0315    -8.2957    96.5230 C.ar       1           0.1354
     27 C19         7.8207    -7.8345    97.5690 C.ar       1          -0.1088
     28 C20         8.6284    -8.7141    98.2623 C.ar       1          -0.0985
     29 C21         8.6526   -10.0529    97.9158 C.ar       1          -0.0802
     30 C22         7.8687   -10.5150    96.8749 C.ar       1          -0.1624
     31 C23         7.0535    -9.6416    96.1816 C.ar       1          -0.0707
     32 C24         7.8990   -11.9744    96.5001 C.3        1           0.5087
     33 F1          8.7870   -12.6535    97.3414 F          1          -0.1740
     34 F2          6.6174   -12.5181    96.6385 F          1          -0.1727
     35 F3          8.3207   -12.1064    95.1728 F          1          -0.1742
     36 H2          2.4244    -6.2299    81.6126 H          1           0.0564
     37 H3          3.4241    -7.4845    82.3838 H          1           0.0576
     38 H4          2.0643    -6.7583    83.2737 H          1           0.0613
     39 H5          4.5898    -5.2959    82.3790 H          1           0.0650
     40 H6          3.2299    -4.5697    83.2688 H          1           0.0661
     41 H7          3.6102    -6.1513    85.1403 H          1           0.0753
     42 H8          4.9699    -6.8774    84.2505 H          1           0.0729
     43 H9          6.1355    -4.6889    84.2457 H          1           0.0871
     44 H10         4.7758    -3.9628    85.1355 H          1           0.0882
     45 H11         5.1559    -5.5443    87.0071 H          1           0.1374
     46 H12         6.5156    -6.2705    86.1172 H          1           0.1333
     47 H13         7.6296    -3.9671    84.8616 H          1           0.1334
     48 H14         8.5796    -3.2363    86.2025 H          1           0.1381
     49 H15         8.1847    -6.2438    85.6402 H          1           0.1195
     50 H16         9.7418    -5.3438    85.6462 H          1           0.1016
     51 H17         8.7687    -6.5383    87.9213 H          1           0.1042
     52 H18         9.6680    -4.9898    87.9850 H          1           0.1183
     53 H19         7.7606    -3.9214    88.6770 H          1           0.1517
     54 H20         6.3740    -6.6017    88.1762 H          1           0.1062
     55 H21         7.0908    -6.0711    89.7165 H          1           0.0905
     56 H22         5.2094    -4.1312    88.8953 H          1           0.4276
     57 H23         3.2634    -3.8564    91.8097 H          1           0.1469
     58 H24         3.6821    -3.4985    94.2069 H          1           0.1471
     59 H25         5.1212    -5.0549    95.4549 H          1           0.1398
     60 H26         5.7123    -7.3456    91.8773 H          1           0.1586
     61 H27         5.5215    -6.9112    96.2853 H          1           0.4135
     62 H28         7.8027    -6.7892    97.8396 H          1           0.1370
     63 H29         9.2422    -8.3562    99.0756 H          1           0.1441
     64 H30         9.2856   -10.7387    98.4593 H          1           0.1445
     65 H31         6.4374   -10.0041    95.3721 H          1           0.1510
@<TRIPOS>BOND
     1    1    2 1
     2    1   36 1
     3    1   37 1
     4    1   38 1
     5    2    3 1
     6    2   39 1
     7    2   40 1
     8    3    4 1
     9    3   41 1
    10    3   42 1
    11    4    5 1
    12    4   43 1
    13    4   44 1
    14    5    6 1
    15    5   45 1
    16    5   46 1
    17    6    7 1
    18    6   11 1
    19    6    8 1
    20    8    9 1
    21    8   47 1
    22    8   48 1
    23    9   10 1
    24    9   49 1
    25    9   50 1
    26   10   11 1
    27   10   51 1
    28   10   52 1
    29   11   12 1
    30   11   53 1
    31   12   13 1
    32   12   54 1
    33   12   55 1
    34   13   14 1
    35   13   56 1
    36   14   15 2
    37   14   16 2
    38   14   17 1
    39   17   22 ar
    40   17   18 ar
    41   18   19 ar
    42   18   57 1
    43   19   20 ar
    44   19   58 1
    45   20   21 ar
    46   20   59 1
    47   21   22 ar
    48   21   23 1
    49   22   60 1
    50   23   24 2
    51   23   25 am
    52   25   26 1
    53   25   61 1
    54   26   31 ar
    55   26   27 ar
    56   27   28 ar
    57   27   62 1
    58   28   29 ar
    59   28   63 1
    60   29   30 ar
    61   29   64 1
    62   30   31 ar
    63   30   32 1
    64   31   65 1
    65   32   33 1
    66   32   34 1
    67   32   35 1
##########                 Name:              T542306
##########          Protonation:                   99
##########               SMILES:   c1cc(ccc1/C=C/C(=O)NCCCCC[NH+]2CCC[C@H](C2)C(=O)Nc3ccc(c(c3)Cl)F)Cl
##########            Long Name:   E)-3-(4-chlorophenyl)prop-2-enoyl]amino]pentyl]piperidin-1-ium-3-carboxamide
##########          FlexRecCode: 1
##########               Number:                   64
##########   Ligand Source File: /raidb/db2/rgc/tcams/tcams-0002233.db2.gz
##########           GlobalRank: 309
##########                 Rank:                    1
##########               Setnum:                  339
##########             Matchnum:                 5242
##########                Cloud:                    1
##########        Electrostatic:           -46.113594
##########        Van der Waals:           -26.368275
##########  Ligand Polar Desolv:            10.453617
########## Ligand Apolar Desolv:            -3.018592
##########      Internal Energy:             0.000000
##########      Receptor Energy: 0.0
########## Receptor Desolvation:             0.000000
########## Receptor Hydrophobic:             0.000000
##########         Total Energy: -65.05
##########        Ligand Charge:             1.000000
##########            Arbitrary:    +999.9990
##########     heavy atom count:   34
##########           pose count:    1
##########        Ligand Energy:             0.000000
# num electro vdwattr vdwrepu polsolv apolsol rdesolv rhydroe totalscore fullpol fullapo
#   1    2.47   -2.68    2.29   -0.22   -0.28    0.00    0.00       1.57   -0.37   -0.47
#   2   -1.94   -2.57    0.94   -0.01   -0.19    0.00    0.00      -3.77   -0.01   -0.34
#   3    2.53   -2.91    0.68   -0.63   -0.28    0.00    0.00      -0.61   -1.04   -0.47
#   4    1.55   -2.68    0.92   -0.56   -0.22    0.00    0.00      -0.98   -1.04   -0.40
#   5   -2.15   -1.68    0.33    0.97   -0.28    0.00    0.00      -2.81    2.33   -0.68
#   6   13.59   -1.56    0.29   -4.86    0.63    0.00    0.00       8.10  -12.48    1.63
#   7   -9.11   -0.89    0.06    3.22   -0.17    0.00    0.00      -6.90   10.66   -0.58
#   8    3.54   -1.10    0.24   -2.71    0.09    0.00    0.00       0.06   -9.15    0.32
#   9    3.43   -0.61    0.10   -0.71   -0.04    0.00    0.00       2.16   -2.73   -0.17
#  10    2.30   -0.40    0.02   -0.77   -0.04    0.00    0.00       1.11   -3.82   -0.22
#  11    3.11   -0.44    0.03   -0.89   -0.05    0.00    0.00       1.76   -4.03   -0.25
#  12    0.35   -0.43    0.04   -0.07   -0.08    0.00    0.00      -0.19   -0.36   -0.37
#  13   13.57   -1.70    1.64   -3.10    0.07    0.00    0.00      10.48  -11.74    0.27
#  14  -24.46   -0.19    0.09    5.18    0.16    0.00    0.00     -19.22   17.23    0.54
#  15    0.29   -0.72    0.17    0.04   -0.08    0.00    0.00      -0.30    0.17   -0.35
#  16    4.69   -1.37    0.58   -1.25   -0.06    0.00    0.00       2.58   -4.08   -0.21
#  17    2.44   -0.58    0.05   -0.77   -0.06    0.00    0.00       1.08   -2.90   -0.22
#  18    2.80   -1.22    0.45   -0.87   -0.08    0.00    0.00       1.08   -2.31   -0.22
#  19   -2.62   -1.61    1.25    0.51   -0.17    0.00    0.00      -2.64    1.32   -0.43
#  20   22.26   -2.14    0.73   -3.54    0.96    0.00    0.00      18.27   -8.58    2.33
#  21   -9.45   -1.07    0.15    1.10   -0.19    0.00    0.00      -9.47    3.70   -0.65
#  22    5.08   -0.65    0.09   -0.16    0.08    0.00    0.00       4.44   -0.75    0.39
#  23    2.13   -1.07    0.20   -0.50   -0.12    0.00    0.00       0.64   -1.79   -0.43
#  24    0.01   -0.42    0.02   -0.05   -0.07    0.00    0.00      -0.51   -0.32   -0.44
#  25    0.11   -0.37    0.01   -0.08   -0.06    0.00    0.00      -0.39   -0.54   -0.41
#  26    0.22   -0.79    0.08   -0.19   -0.11    0.00    0.00      -0.79   -0.73   -0.44
#  27    0.01   -0.83    0.12   -0.21   -0.11    0.00    0.00      -1.00   -0.87   -0.46
#  28    0.00   -0.41    0.04   -0.04   -0.04    0.00    0.00      -0.46   -0.29   -0.30
#  29   -0.03   -0.72    0.13   -0.04   -0.13    0.00    0.00      -0.80   -0.33   -0.99
#  30    0.01   -0.20    0.01   -0.05   -0.04    0.00    0.00      -0.28   -0.65   -0.46
#  31    0.05   -0.19    0.00   -0.05   -0.03    0.00    0.00      -0.22   -0.61   -0.45
#  32   -0.28   -0.76    0.21    0.16   -0.07    0.00    0.00      -0.73    0.64   -0.27
#  33    1.14   -1.34    0.15   -0.45   -0.17    0.00    0.00      -0.67   -1.19   -0.45
#  34    0.63   -1.85    0.62   -0.26   -0.14    0.00    0.00      -0.99   -0.57   -0.30
#  35    0.21   -4.37    2.95   -0.24   -0.52    0.00    0.00      -1.98   -0.44   -0.97
#  36   -4.03   -1.11    0.58    0.90   -0.17    0.00    0.00      -3.84    1.44   -0.28
#  37   -2.75   -0.91    1.08    1.07   -0.11    0.00    0.00      -1.62    2.14   -0.22
#  38  -11.25   -0.03    0.00    4.16    0.22    0.00    0.00      -6.90   10.32    0.55
#  39   -4.94   -0.37    0.23    1.33   -0.06    0.00    0.00      -3.81    6.29   -0.28
#  40   -0.58   -0.16    0.03    0.18   -0.04    0.00    0.00      -0.57    1.42   -0.28
#  41   -1.73   -0.11    0.00    0.24   -0.03    0.00    0.00      -1.63    2.44   -0.26
#  42   -1.71   -0.08    0.00    0.21   -0.02    0.00    0.00      -1.61    2.58   -0.28
#  43   -2.93   -0.25    0.04    0.92   -0.06    0.00    0.00      -2.29    4.13   -0.28
#  44   -1.65   -0.06    0.00    0.21   -0.01    0.00    0.00      -1.51    4.05   -0.28
#  45   -2.65   -0.14    0.01    0.97   -0.04    0.00    0.00      -1.85    5.87   -0.22
#  46   -3.65   -0.22    0.03    0.98   -0.06    0.00    0.00      -2.91    4.73   -0.28
#  47   -2.20   -0.06    0.00    0.25   -0.02    0.00    0.00      -2.02    4.17   -0.28
#  48   -2.05   -0.32    0.08    0.87   -0.05    0.00    0.00      -1.47    3.63   -0.22
#  49   -4.43   -1.71    4.27    1.47   -0.11    0.00    0.00      -0.51    3.68   -0.28
#  50   -1.86   -0.14    0.01    0.21   -0.04    0.00    0.00      -1.83    1.37   -0.28
#  51   -0.97   -0.08    0.00    0.10   -0.02    0.00    0.00      -0.97    1.34   -0.28
#  52   -0.44   -0.47    0.30    0.52   -0.07    0.00    0.00      -0.16    2.06   -0.28
#  53   -2.95   -0.82    0.79    0.79   -0.11    0.00    0.00      -2.29    2.03   -0.28
#  54   -0.61   -0.81    1.10    0.08   -0.07    0.00    0.00      -0.32    0.30   -0.28
#  55   -1.82   -0.84    1.59    0.10   -0.10    0.00    0.00      -1.06    0.30   -0.28
#  56  -16.71   -0.07    0.01    2.96    0.23    0.00    0.00     -13.59    7.34    0.56
#  57   -2.76   -0.61    0.71    0.78   -0.06    0.00    0.00      -1.95    2.85   -0.21
#  58   -0.28   -0.04    0.00    0.02   -0.01    0.00    0.00      -0.31    0.43   -0.26
#  59   -1.69   -0.31    0.09    0.69   -0.05    0.00    0.00      -1.28    2.65   -0.21
#  60   -0.05   -0.34    0.17    0.34   -0.07    0.00    0.00       0.06    1.48   -0.28
#  61    0.01   -0.02    0.00    0.02   -0.01    0.00    0.00       0.00    0.74   -0.28
#  62   -0.11   -0.02    0.00    0.03   -0.01    0.00    0.00      -0.11    1.10   -0.28
#  63   -4.39   -0.46    0.25    1.25   -0.08    0.00    0.00      -3.43    4.49   -0.28
#  64   -2.31   -0.10    0.00    0.33   -0.03    0.00    0.00      -2.10    3.37   -0.28
#  65   -1.14   -0.20    0.01    0.58   -0.06    0.00    0.00      -0.80    2.83   -0.28

@<TRIPOS>MOLECULE
          T542306        99
   65    67     0     0     0



@<TRIPOS>ATOM
      1 F1          9.0594    -9.8575   100.1009 F          1          -0.1183
      2 C1          8.5909    -9.1544    99.0467 C.ar       1           0.1090
      3 C2          8.6419    -7.7708    99.0608 C.ar       1          -0.1202
      4 C3          8.1635    -7.0499    97.9842 C.ar       1          -0.0849
      5 C4          7.6308    -7.7132    96.8866 C.ar       1           0.1334
      6 N1          7.1458    -6.9837    95.7943 N.am       1          -0.6589
      7 C5          6.1380    -7.4778    95.0480 C.2        1           0.5254
      8 O1          5.6513    -8.5543    95.3227 O.2        1          -0.5064
      9 C6          5.6160    -6.6927    93.8724 C.3        1          -0.1290
     10 C7          4.1317    -7.0076    93.6654 C.3        1          -0.1339
     11 C8          3.6311    -6.2661    92.4225 C.3        1          -0.1418
     12 C9          4.4829    -6.6694    91.2171 C.3        1          -0.0161
     13 N2          5.8863    -6.3185    91.4657 N.4        1          -0.3821
     14 H1          5.9554    -5.3312    91.6617 H          1           0.4224
     15 C10         6.6874    -6.6377    90.2765 C.3        1          -0.0106
     16 C11         6.5237    -5.5261    89.2380 C.3        1          -0.1471
     17 C12         7.3581    -5.8585    87.9993 C.3        1          -0.1157
     18 C13         7.1943    -4.7468    86.9608 C.3        1          -0.1322
     19 C14         8.0287    -5.0792    85.7222 C.3        1           0.1174
     20 N3          9.4398    -5.1909    86.0996 N.am       1          -0.7322
     21 C15         9.9432    -6.3816    86.4809 C.2        1           0.5498
     22 O2          9.2255    -7.3640    86.5116 O.2        1          -0.5395
     23 C16        11.3532    -6.4933    86.8580 C.2        1          -0.2226
     24 C17        11.8569    -7.6846    87.2395 C.2        1          -0.0052
     25 C18        13.2744    -7.7968    87.6185 C.ar       1          -0.0805
     26 C19        13.9946    -6.6569    87.9903 C.ar       1          -0.0878
     27 C20        15.3219    -6.7696    88.3446 C.ar       1          -0.1131
     28 C21        15.9428    -8.0082    88.3328 C.ar       1          -0.0217
     29 Cl1        17.6149    -8.1404    88.7799 Cl         1          -0.0588
     30 C22        15.2354    -9.1415    87.9661 C.ar       1          -0.1116
     31 C23        13.9062    -9.0446    87.6144 C.ar       1          -0.0781
     32 C24         6.3944    -7.0801    92.6131 C.3        1           0.0099
     33 C25         7.5801    -9.1005    96.8735 C.ar       1          -0.1031
     34 C26         8.0651    -9.8188    97.9503 C.ar       1          -0.0568
     35 Cl2         8.0089   -11.5539    97.9322 Cl         1          -0.0302
     36 H2          9.0558    -7.2548    99.9145 H          1           0.1545
     37 H3          8.2033    -5.9707    97.9961 H          1           0.1491
     38 H4          7.5349    -6.1228    95.5748 H          1           0.4172
     39 H5          5.7395    -5.6266    94.0630 H          1           0.1268
     40 H6          4.0027    -8.0810    93.5261 H          1           0.0925
     41 H7          3.5649    -6.6815    94.5375 H          1           0.1006
     42 H8          2.5897    -6.5292    92.2367 H          1           0.1198
     43 H9          3.7126    -5.1911    92.5826 H          1           0.0927
     44 H10         4.4004    -7.7446    91.0578 H          1           0.1317
     45 H11         4.1291    -6.1435    90.3304 H          1           0.1362
     46 H12         7.7373    -6.7207    90.5572 H          1           0.1342
     47 H13         6.3487    -7.5831    89.8533 H          1           0.1326
     48 H14         5.4737    -5.4431    88.9572 H          1           0.0883
     49 H15         6.8624    -4.5805    89.6613 H          1           0.0885
     50 H16         8.4080    -5.9414    88.2802 H          1           0.0797
     51 H17         7.0193    -6.8040    87.5760 H          1           0.0794
     52 H18         6.1443    -4.6639    86.6800 H          1           0.0742
     53 H19         7.5330    -3.8014    87.3841 H          1           0.0746
     54 H20         7.6899    -6.0249    85.2989 H          1           0.0701
     55 H21         7.9121    -4.2874    84.9823 H          1           0.0700
     56 H22        10.0118    -4.4079    86.0753 H          1           0.4021
     57 H23        11.9902    -5.6215    86.8307 H          1           0.1309
     58 H24        11.2199    -8.5564    87.2668 H          1           0.1399
     59 H25        13.5122    -5.6907    87.9993 H          1           0.1361
     60 H26        15.8793    -5.8903    88.6319 H          1           0.1388
     61 H27        15.7258   -10.1038    87.9591 H          1           0.1407
     62 H28        13.3550    -9.9295    87.3325 H          1           0.1403
     63 H29         7.4516    -6.8573    92.7571 H          1           0.1410
     64 H30         6.2711    -8.1465    92.4240 H          1           0.1400
     65 H31         7.1662    -9.6182    96.0208 H          1           0.1490
@<TRIPOS>BOND
     1    1    2 1
     2    2   34 ar
     3    2    3 ar
     4    3    4 ar
     5    3   36 1
     6    4    5 ar
     7    4   37 1
     8    5    6 1
     9    5   33 ar
    10    6    7 am
    11    6   38 1
    12    7    8 2
    13    7    9 1
    14    9   32 1
    15    9   10 1
    16    9   39 1
    17   10   11 1
    18   10   40 1
    19   10   41 1
    20   11   12 1
    21   11   42 1
    22   11   43 1
    23   12   13 1
    24   12   44 1
    25   12   45 1
    26   13   14 1
    27   13   15 1
    28   13   32 1
    29   15   16 1
    30   15   46 1
    31   15   47 1
    32   16   17 1
    33   16   48 1
    34   16   49 1
    35   17   18 1
    36   17   50 1
    37   17   51 1
    38   18   19 1
    39   18   52 1
    40   18   53 1
    41   19   20 1
    42   19   54 1
    43   19   55 1
    44   20   21 am
    45   20   56 1
    46   21   22 2
    47   21   23 1
    48   23   24 2
    49   23   57 1
    50   24   25 1
    51   24   58 1
    52   25   31 ar
    53   25   26 ar
    54   26   27 ar
    55   26   59 1
    56   27   28 ar
    57   27   60 1
    58   28   29 1
    59   28   30 ar
    60   30   31 ar
    61   30   61 1
    62   31   62 1
    63   32   63 1
    64   32   64 1
    65   33   34 ar
    66   33   65 1
    67   34   35 1
##########                 Name:              T528651
##########          Protonation:                   24
##########               SMILES:   Cc1cc(ccc1)C(=O)Nc2cc([nH+]cc2)N3CC[C@@H](CC3)[NH+](Cc4cc(ccc4)O)C
##########            Long Name:   ethyl-[1-[4-[(3-methylbenzoyl)amino]pyridin-1-ium-2-yl]-4-piperidyl]ammonium
##########          FlexRecCode: 1
##########               Number:                  145
##########   Ligand Source File: /raidb/db2/rgc/tcams/tcams-0000469.db2.gz
##########           GlobalRank: 312
##########                 Rank:                    1
##########               Setnum:                  336
##########             Matchnum:                 1073
##########                Cloud:                    1
##########        Electrostatic:           -38.110779
##########        Van der Waals:           -28.258335
##########  Ligand Polar Desolv:             3.919708
########## Ligand Apolar Desolv:            -2.593642
##########      Internal Energy:             0.000000
##########      Receptor Energy: 0.0
########## Receptor Desolvation:             0.000000
########## Receptor Hydrophobic:             0.000000
##########         Total Energy: -65.04
##########        Ligand Charge:             2.000000
##########            Arbitrary:    +999.9990
##########     heavy atom count:   32
##########           pose count:    1
##########        Ligand Energy:             0.000000
# num electro vdwattr vdwrepu polsolv apolsol rdesolv rhydroe totalscore fullpol fullapo
#   1    0.52   -0.11    0.00   -0.21   -0.03    0.00    0.00       0.16   -3.14   -0.44
#   2    2.96   -0.16    0.00   -1.35    0.02    0.00    0.00       1.47  -16.41    0.21
#   3   -1.75    0.00    0.00    0.68    0.02    0.00    0.00      -1.05   20.60    0.54
#   4   -0.40   -0.29    0.02    0.39   -0.05    0.00    0.00      -0.34    2.44   -0.34
#   5    0.65   -0.82    0.14   -0.58   -0.07    0.00    0.00      -0.68   -2.74   -0.33
#   6    0.32   -0.72    0.15   -0.48   -0.06    0.00    0.00      -0.79   -2.74   -0.36
#   7    0.25   -0.82    0.09   -0.91   -0.13    0.00    0.00      -1.51   -3.37   -0.47
#   8    0.34   -1.45    0.22   -1.60   -0.18    0.00    0.00      -2.68   -4.00   -0.46
#   9   -0.50   -1.96    0.54    0.27   -0.13    0.00    0.00      -1.78    0.66   -0.31
#  10    2.24   -3.14    1.59   -5.07    0.61    0.00    0.00      -3.78   -9.95    1.19
#  11    0.59   -1.40    0.27   -1.10   -0.15    0.00    0.00      -1.79   -3.32   -0.46
#  12   -0.24   -0.17    0.00    0.23   -0.02    0.00    0.00      -0.20    2.09   -0.16
#  13    3.81   -0.55    0.08   -1.63   -0.05    0.00    0.00       1.65   -7.42   -0.22
#  14   -3.31   -1.10    0.43    1.06   -0.14    0.00    0.00      -3.06    3.74   -0.48
#  15   10.95   -0.51    0.03   -4.56    0.32    0.00    0.00       6.22  -24.23    1.69
#  16   -0.88   -0.16    0.00    0.40   -0.05    0.00    0.00      -0.68    4.09   -0.48
#  17    1.08   -0.11    0.00   -0.53   -0.02    0.00    0.00       0.42   -7.65   -0.22
#  18   -9.09   -0.56    0.03    3.69   -0.40    0.00    0.00      -6.33   18.69   -2.01
#  19    4.27   -0.61    0.04   -1.63   -0.09    0.00    0.00       1.97   -7.90   -0.43
#  20   -4.73   -0.78    0.07    1.76   -0.16    0.00    0.00      -3.84    7.44   -0.68
#  21    7.56   -1.02    0.12   -5.40    0.51    0.00    0.00       1.77  -17.34    1.64
#  22   -3.72   -1.32    0.35    3.60   -0.20    0.00    0.00      -1.28   11.75   -0.64
#  23    1.92   -1.25    0.36   -2.46    0.09    0.00    0.00      -1.33   -9.35    0.33
#  24    1.12   -1.33    0.15   -1.01   -0.15    0.00    0.00      -1.22   -2.85   -0.41
#  25    0.21   -1.53    0.22   -0.58   -0.17    0.00    0.00      -1.85   -1.51   -0.43
#  26    0.57   -1.57    0.25   -0.88   -0.20    0.00    0.00      -1.82   -1.78   -0.40
#  27    1.03   -1.30    0.17   -0.88   -0.12    0.00    0.00      -1.09   -1.53   -0.20
#  28    0.74   -1.94    0.72   -0.98   -0.23    0.00    0.00      -1.69   -1.90   -0.45
#  29    1.65   -1.86    0.44   -1.29   -0.24    0.00    0.00      -1.31   -2.53   -0.47
#  30    1.13   -1.44    0.16   -0.56   -0.19    0.00    0.00      -0.90   -1.29   -0.44
#  31    3.08   -0.78    0.03   -2.18   -0.12    0.00    0.00       0.04   -7.46   -0.41
#  32   -3.48   -0.67    0.02    1.93   -0.25    0.00    0.00      -2.45    7.51   -0.97
#  33    9.92   -0.61    0.02   -4.24    0.21    0.00    0.00       5.31  -19.00    0.96
#  34   -7.24   -0.01    0.00    2.83    0.06    0.00    0.00      -4.36   19.87    0.41
#  35   -1.77   -0.06    0.00    0.18   -0.01    0.00    0.00      -1.66    3.27   -0.21
#  36   -0.86   -0.02    0.00    0.20   -0.01    0.00    0.00      -0.69    6.95   -0.28
#  37   -0.72   -0.02    0.00    0.20   -0.01    0.00    0.00      -0.55    6.87   -0.22
#  38   -2.38   -0.09    0.00    0.74   -0.02    0.00    0.00      -1.75    8.29   -0.20
#  39   -1.13   -0.11    0.02    0.86   -0.03    0.00    0.00      -0.40    8.45   -0.28
#  40   -0.33   -0.07    0.01    0.53   -0.02    0.00    0.00       0.11    6.89   -0.28
#  41   -0.31   -0.11    0.00    0.22   -0.03    0.00    0.00      -0.22    2.23   -0.28
#  42   -0.38   -0.39    0.07    0.25   -0.11    0.00    0.00      -0.55    0.63   -0.28
#  43   -7.73   -0.10    0.01    4.19    0.57    0.00    0.00      -3.06    9.04    1.22
#  44   -2.54   -0.33    0.08    1.63   -0.07    0.00    0.00      -1.24    6.17   -0.28
#  45   -0.80   -0.06    0.00    0.48   -0.01    0.00    0.00      -0.39    9.21   -0.28
#  46   -2.37   -0.13    0.01    0.66   -0.04    0.00    0.00      -1.88    4.77   -0.28
#  47   -3.28   -0.24    0.04    1.32   -0.05    0.00    0.00      -2.21    6.45   -0.22
#  48   -4.94   -1.37    3.06    1.58   -0.06    0.00    0.00      -1.74    5.02   -0.20
#  49   -2.66   -0.34    0.07    1.56   -0.08    0.00    0.00      -1.45    5.42   -0.28
#  50   -0.42   -0.05    0.00    0.27   -0.01    0.00    0.00      -0.21    4.84   -0.20
#  51   -0.51   -0.04    0.00    0.23   -0.01    0.00    0.00      -0.34    5.33   -0.28
#  52   -0.31   -0.02    0.00    0.17   -0.01    0.00    0.00      -0.17    6.41   -0.22
#  53   -0.71   -0.03    0.00    0.16   -0.01    0.00    0.00      -0.59    4.64   -0.28
#  54   -3.00   -0.10    0.00    0.91   -0.02    0.00    0.00      -2.21    8.79   -0.20
#  55   -5.86   -0.01    0.00    3.15    0.11    0.00    0.00      -2.62   13.80    0.46
#  56   -0.19   -0.38    0.08    0.37   -0.08    0.00    0.00      -0.20    1.27   -0.27
#  57   -0.50   -0.54    0.15    0.41   -0.16    0.00    0.00      -0.63    0.74   -0.28
#  58   -0.55   -0.59    0.22    0.46   -0.15    0.00    0.00      -0.61    0.86   -0.28
#  59   -0.86   -0.35    0.05    0.33   -0.12    0.00    0.00      -0.95    0.78   -0.28
#  60   -1.38   -0.42    0.12    0.85   -0.13    0.00    0.00      -0.97    1.86   -0.28
#  61   -2.71   -0.42    0.06    1.72   -0.14    0.00    0.00      -1.49    3.50   -0.28
#  62   -1.90   -0.25    0.02    1.65   -0.06    0.00    0.00      -0.54    6.11   -0.22
#  63   -3.66   -0.19    0.01    0.53   -0.05    0.00    0.00      -3.37    2.46   -0.22
#  64   -4.89   -0.15    0.00    1.41   -0.04    0.00    0.00      -3.67    9.40   -0.28

@<TRIPOS>MOLECULE
          T528651        24
   64    67     0     0     0



@<TRIPOS>ATOM
      1 C1          7.5509    -8.8798    88.9349 C.3        1          -0.0598
      2 N1          6.6304    -8.2432    87.9834 N.4        1          -0.3828
      3 H1          6.2447    -8.9438    87.3684 H          1           0.4235
      4 C2          7.3591    -7.2436    87.1912 C.3        1           0.0408
      5 C3          6.4146    -6.5905    86.2151 C.ar       1          -0.1493
      6 C4          5.5304    -7.3644    85.4863 C.ar       1          -0.1069
      7 C5          4.6623    -6.7683    84.5905 C.ar       1          -0.0920
      8 C6          4.6766    -5.3970    84.4213 C.ar       1          -0.1090
      9 C7          5.5628    -4.6186    85.1512 C.ar       1           0.1214
     10 O1          5.5788    -3.2696    84.9866 O.3        1          -0.4911
     11 C8          6.4292    -5.2188    86.0535 C.ar       1          -0.1259
     12 C9          5.5425    -7.5857    88.7199 C.3        1           0.0242
     13 C10         6.1277    -6.5218    89.6516 C.3        1          -0.1633
     14 C11         4.9882    -5.8148    90.3922 C.3        1           0.1091
     15 N2          4.1668    -6.8259    91.0715 N.pl3      1          -0.6081
     16 C12         3.6287    -7.9440    90.2848 C.3        1           0.1196
     17 C13         4.7834    -8.6272    89.5454 C.3        1          -0.1658
     18 C14         3.9038    -6.7267    92.4331 C.ar       1           0.4618
     19 C15         4.7683    -7.3180    93.3451 C.ar       1          -0.2438
     20 C16         4.4923    -7.2098    94.7038 C.ar       1           0.3203
     21 N3          5.3352    -7.7889    95.6525 N.am       1          -0.6657
     22 C17         6.0288    -8.9033    95.3470 C.2        1           0.5747
     23 O2          5.9198    -9.4039    94.2447 O.2        1          -0.4906
     24 C18         6.9218    -9.5169    96.3524 C.ar       1          -0.1555
     25 C19         7.1939   -10.8855    96.3062 C.ar       1          -0.0490
     26 C20         8.0286   -11.4516    97.2471 C.ar       1          -0.0829
     27 C21         8.3234   -12.9287    97.1989 C.3        1          -0.1248
     28 C22         8.5961   -10.6663    98.2351 C.ar       1          -0.0736
     29 C23         8.3302    -9.3096    98.2868 C.ar       1          -0.1176
     30 C24         7.5014    -8.7297    97.3485 C.ar       1          -0.0905
     31 C25         3.3509    -6.5070    95.0950 C.ar       1          -0.1718
     32 C26         2.5414    -5.9479    94.1305 C.ar       1           0.1700
     33 N4          2.8339    -6.0642    92.8480 N.ar       1          -0.5166
     34 H2          2.2476    -5.6565    92.1915 H          1           0.4375
     35 H3          7.9676    -8.1228    89.5992 H          1           0.1317
     36 H4          7.0101    -9.6214    89.5229 H          1           0.1275
     37 H5          8.3581    -9.3676    88.3885 H          1           0.1252
     38 H6          7.7758    -6.4866    87.8555 H          1           0.1384
     39 H7          8.1663    -7.7313    86.6446 H          1           0.1413
     40 H8          5.5180    -8.4364    85.6168 H          1           0.1352
     41 H9          3.9730    -7.3748    84.0221 H          1           0.1442
     42 H10         3.9986    -4.9319    83.7211 H          1           0.1453
     43 H11         6.2295    -2.8138    85.5380 H          1           0.4022
     44 H12         7.1171    -4.6143    86.6262 H          1           0.1355
     45 H13         4.8594    -7.1137    88.0139 H          1           0.1477
     46 H14         6.7919    -6.9964    90.3739 H          1           0.0983
     47 H15         6.6879    -5.7933    89.0654 H          1           0.1182
     48 H16         5.4029    -5.1261    91.1282 H          1           0.0957
     49 H17         4.3747    -5.2646    89.6788 H          1           0.1116
     50 H18         3.1462    -8.6602    90.9500 H          1           0.1172
     51 H19         2.9043    -7.5674    89.5625 H          1           0.1066
     52 H20         4.3868    -9.3971    88.8835 H          1           0.1178
     53 H21         5.4603    -9.0819    90.2686 H          1           0.0994
     54 H22         5.6416    -7.8542    93.0041 H          1           0.1810
     55 H23         5.4222    -7.3894    96.5323 H          1           0.4308
     56 H24         6.7517   -11.4995    95.5358 H          1           0.1410
     57 H25         8.9964   -13.1917    98.0151 H          1           0.0811
     58 H26         7.3935   -13.4883    97.3000 H          1           0.0764
     59 H27         8.7936   -13.1745    96.2468 H          1           0.0737
     60 H28         9.2491   -11.1145    98.9692 H          1           0.1381
     61 H29         8.7758    -8.7023    99.0609 H          1           0.1382
     62 H30         7.2982    -7.6697    97.3874 H          1           0.1232
     63 H31         3.1052    -6.4033    96.1416 H          1           0.1952
     64 H32         1.6573    -5.4036    94.4276 H          1           0.2156
@<TRIPOS>BOND
     1    1    2 1
     2    1   35 1
     3    1   36 1
     4    1   37 1
     5    2    3 1
     6    2    4 1
     7    2   12 1
     8    4    5 1
     9    4   38 1
    10    4   39 1
    11    5   11 ar
    12    5    6 ar
    13    6    7 ar
    14    6   40 1
    15    7    8 ar
    16    7   41 1
    17    8    9 ar
    18    8   42 1
    19    9   10 1
    20    9   11 ar
    21   10   43 1
    22   11   44 1
    23   12   17 1
    24   12   13 1
    25   12   45 1
    26   13   14 1
    27   13   46 1
    28   13   47 1
    29   14   15 1
    30   14   48 1
    31   14   49 1
    32   15   16 1
    33   15   18 1
    34   16   17 1
    35   16   50 1
    36   16   51 1
    37   17   52 1
    38   17   53 1
    39   18   33 ar
    40   18   19 ar
    41   19   20 ar
    42   19   54 1
    43   20   21 1
    44   20   31 ar
    45   21   22 am
    46   21   55 1
    47   22   23 2
    48   22   24 1
    49   24   30 ar
    50   24   25 ar
    51   25   26 ar
    52   25   56 1
    53   26   27 1
    54   26   28 ar
    55   27   57 1
    56   27   58 1
    57   27   59 1
    58   28   29 ar
    59   28   60 1
    60   29   30 ar
    61   29   61 1
    62   30   62 1
    63   31   32 ar
    64   31   63 1
    65   32   33 ar
    66   32   64 1
    67   33   34 1
##########                 Name:              T539458
##########          Protonation:                   99
##########               SMILES:   (c1)Cl)Cl)OCC[C@H]2CC[NH+](CC2)CCCCCCC[NH+]3CC[C@@H](CC3)CCOc4cc(c(cc4)Cl)Cl
##########            Long Name:   [4-[2-(3,4-dichlorophenoxy)ethyl]piperidin-1-ium-1-yl]heptyl]piperidin-1-ium
##########          FlexRecCode: 1
##########               Number:                  122
##########   Ligand Source File: /raidb/db2/rgc/tcams/tcams-0001899.db2.gz
##########           GlobalRank: 312
##########                 Rank:                    1
##########               Setnum:                  150
##########             Matchnum:                 3456
##########                Cloud:                    1
##########        Electrostatic:           -45.957874
##########        Van der Waals:           -23.565865
##########  Ligand Polar Desolv:             9.613565
########## Ligand Apolar Desolv:            -5.130693
##########      Internal Energy:             0.000000
##########      Receptor Energy: 0.0
########## Receptor Desolvation:             0.000000
########## Receptor Hydrophobic:             0.000000
##########         Total Energy: -65.04
##########        Ligand Charge:             2.000000
##########            Arbitrary:    +999.9990
##########     heavy atom count:   41
##########           pose count:    1
##########        Ligand Energy:             0.000000
# num electro vdwattr vdwrepu polsolv apolsol rdesolv rhydroe totalscore fullpol fullapo
#   1    0.02   -0.27    0.01   -0.05   -0.06    0.00    0.00      -0.35   -0.81   -0.95
#   2    0.06   -0.20    0.01   -0.10   -0.03    0.00    0.00      -0.26   -1.20   -0.30
#   3    0.06   -0.23    0.00   -0.08   -0.04    0.00    0.00      -0.28   -0.88   -0.46
#   4    0.21   -0.26    0.01   -0.22   -0.05    0.00    0.00      -0.32   -2.10   -0.46
#   5   -0.26   -0.28    0.01    0.33   -0.04    0.00    0.00      -0.24    2.69   -0.31
#   6    0.68   -0.28    0.02   -0.82    0.12    0.00    0.00      -0.28   -6.01    0.89
#   7   -0.35   -0.32    0.02    0.07   -0.02    0.00    0.00      -0.59    0.37   -0.08
#   8    1.52   -0.54    0.12   -0.66   -0.04    0.00    0.00       0.39   -3.10   -0.19
#   9    2.20   -0.61    0.04   -0.94   -0.06    0.00    0.00       0.63   -2.85   -0.17
#  10    4.01   -0.83    0.16   -1.48   -0.07    0.00    0.00       1.79   -4.98   -0.22
#  11    0.23   -0.45    0.04    0.03   -0.08    0.00    0.00      -0.23    0.15   -0.37
#  12    2.54   -0.96    0.25   -3.66    0.07    0.00    0.00      -1.76  -14.23    0.27
#  13   -8.75   -0.06    0.01    5.89    0.17    0.00    0.00      -2.75   19.06    0.54
#  14    0.04   -0.38    0.03    0.03   -0.07    0.00    0.00      -0.35    0.14   -0.35
#  15    0.35   -1.11    0.56   -1.57   -0.06    0.00    0.00      -1.83   -5.57   -0.21
#  16    0.19   -0.43    0.04   -0.90   -0.05    0.00    0.00      -1.15   -4.40   -0.22
#  17    0.20   -0.28    0.02   -0.64   -0.03    0.00    0.00      -0.73   -4.26   -0.22
#  18    0.49   -1.10    1.04   -1.07   -0.05    0.00    0.00      -0.69   -4.38   -0.22
#  19    1.62   -0.45    0.05   -1.09   -0.04    0.00    0.00       0.10   -5.36   -0.21
#  20    0.27   -0.28    0.01   -0.10   -0.05    0.00    0.00      -0.15   -0.56   -0.28
#  21    8.96   -0.63    0.07   -3.27    0.10    0.00    0.00       5.22  -14.21    0.43
#  22  -10.30   -0.01    0.00    3.69    0.10    0.00    0.00      -6.52   20.18    0.56
#  23    0.25   -0.41    0.04    0.03   -0.08    0.00    0.00      -0.18    0.14   -0.39
#  24    1.94   -0.46    0.04   -1.04   -0.04    0.00    0.00       0.45   -4.85   -0.21
#  25    2.21   -0.51    0.02   -0.71   -0.04    0.00    0.00       0.96   -2.67   -0.16
#  26    1.75   -0.72    0.05   -1.02   -0.08    0.00    0.00      -0.01   -2.83   -0.21
#  27   -0.70   -0.80    0.06    0.17   -0.03    0.00    0.00      -1.30    0.43   -0.08
#  28    2.83   -0.91    0.07   -1.89    0.30    0.00    0.00       0.39   -5.68    0.89
#  29   -1.04   -1.35    0.15    0.88   -0.11    0.00    0.00      -1.47    2.44   -0.31
#  30    0.67   -1.63    0.28   -1.01   -0.16    0.00    0.00      -1.84   -2.69   -0.42
#  31   -0.04   -1.57    0.19   -0.11   -0.14    0.00    0.00      -1.67   -0.23   -0.30
#  32    0.42   -6.57    8.66   -0.37   -0.49    0.00    0.00       1.66   -0.71   -0.95
#  33    0.51   -1.69    0.30   -0.64   -0.17    0.00    0.00      -1.69   -1.16   -0.30
#  34    0.14   -6.78    4.52   -0.48   -0.59    0.00    0.00      -3.20   -0.77   -0.95
#  35    0.60   -1.93    0.72   -0.42   -0.23    0.00    0.00      -1.25   -0.83   -0.46
#  36    1.53   -1.59    0.28   -0.92   -0.21    0.00    0.00      -0.91   -2.02   -0.46
#  37    4.07   -0.58    0.03   -1.72   -0.06    0.00    0.00       1.74   -5.37   -0.19
#  38    0.25   -1.10    0.32    0.14   -0.14    0.00    0.00      -0.53    0.42   -0.42
#  39    0.06   -0.66    0.09   -0.02   -0.09    0.00    0.00      -0.61   -0.06   -0.35
#  40    1.86   -1.01    0.21   -1.64   -0.09    0.00    0.00      -0.67   -4.50   -0.24
#  41    0.32   -0.28    0.01   -0.32   -0.05    0.00    0.00      -0.32   -2.79   -0.42
#  42   -0.01   -0.24    0.01   -0.03   -0.03    0.00    0.00      -0.29   -0.27   -0.30
#  43    0.02   -0.54    0.02   -0.10   -0.12    0.00    0.00      -0.72   -0.77   -0.95
#  44   -0.16   -0.04    0.00    0.08   -0.01    0.00    0.00      -0.13    2.25   -0.28
#  45   -0.24   -0.05    0.00    0.17   -0.01    0.00    0.00      -0.13    3.26   -0.28
#  46   -0.63   -0.06    0.00    0.15   -0.01    0.00    0.00      -0.55    2.70   -0.21
#  47   -0.75   -0.14    0.01    0.17   -0.05    0.00    0.00      -0.76    0.96   -0.27
#  48   -1.34   -0.73    1.38    0.30   -0.06    0.00    0.00      -0.45    1.39   -0.28
#  49   -0.60   -0.07    0.00    0.31   -0.01    0.00    0.00      -0.37    4.04   -0.18
#  50   -3.18   -0.23    0.02    0.38   -0.08    0.00    0.00      -3.10    1.30   -0.28
#  51   -2.78   -0.18    0.02    0.36   -0.04    0.00    0.00      -2.61    2.17   -0.22
#  52   -3.87   -0.77    0.61    1.33   -0.10    0.00    0.00      -2.80    3.76   -0.28
#  53   -1.53   -0.05    0.00    0.23   -0.01    0.00    0.00      -1.36    4.85   -0.22
#  54   -3.24   -0.15    0.02    0.92   -0.04    0.00    0.00      -2.49    6.36   -0.28
#  55   -0.36   -0.05    0.00    0.24   -0.01    0.00    0.00      -0.18    5.44   -0.28
#  56   -1.13   -0.07    0.00    0.51   -0.02    0.00    0.00      -0.72    6.04   -0.28
#  57   -0.25   -0.73    0.67    1.32   -0.10    0.00    0.00       0.91    3.74   -0.28
#  58   -0.17   -0.65    0.83    1.01   -0.06    0.00    0.00       0.97    3.81   -0.22
#  59   -0.09   -0.18    0.02    0.37   -0.05    0.00    0.00       0.06    1.97   -0.28
#  60   -0.11   -0.06    0.00    0.12   -0.02    0.00    0.00      -0.06    1.98   -0.28
#  61   -0.11   -0.05    0.00    0.11   -0.01    0.00    0.00      -0.06    2.06   -0.28
#  62   -0.28   -0.05    0.00    0.10   -0.01    0.00    0.00      -0.24    2.06   -0.28
#  63   -0.81   -0.59    0.82    0.52   -0.08    0.00    0.00      -0.14    1.93   -0.28
#  64   -0.13   -0.80    2.26    0.43   -0.06    0.00    0.00       1.71    1.92   -0.28
#  65   -1.40   -0.19    0.03    0.61   -0.04    0.00    0.00      -0.99    3.72   -0.22
#  66   -0.71   -0.09    0.00    0.35   -0.03    0.00    0.00      -0.47    3.85   -0.28
#  67   -1.44   -0.09    0.00    0.48   -0.02    0.00    0.00      -1.06    5.88   -0.28
#  68   -0.89   -0.06    0.00    0.25   -0.01    0.00    0.00      -0.70    4.78   -0.15
#  69   -1.80   -0.07    0.00    0.40   -0.01    0.00    0.00      -1.48    6.59   -0.21
#  70   -4.46   -0.28    0.13    0.95   -0.05    0.00    0.00      -3.71    5.44   -0.28
#  71   -0.31   -0.23    0.08    0.57   -0.03    0.00    0.00       0.07    3.84   -0.22
#  72   -1.23   -0.14    0.01    0.30   -0.03    0.00    0.00      -1.10    2.46   -0.28
#  73   -2.99   -0.21    0.02    0.49   -0.05    0.00    0.00      -2.74    2.62   -0.28
#  74   -1.62   -0.29    0.03    0.67   -0.08    0.00    0.00      -1.29    2.25   -0.28
#  75   -0.63   -0.31    0.08    0.28   -0.07    0.00    0.00      -0.64    1.17   -0.28
#  76   -1.27   -0.26    0.04    0.37   -0.07    0.00    0.00      -1.18    1.50   -0.27
#  77   -0.73   -0.37    0.06    0.83   -0.08    0.00    0.00      -0.28    2.43   -0.22
#  78    0.04   -0.47    0.19    1.00   -0.06    0.00    0.00       0.71    3.69   -0.22
#  79   -2.26   -0.43    0.11    0.88   -0.12    0.00    0.00      -1.82    2.10   -0.28
#  80   -2.29   -0.28    0.02    0.97   -0.10    0.00    0.00      -1.68    2.82   -0.28
#  81   -1.91   -0.12    0.00    0.38   -0.02    0.00    0.00      -1.66    3.70   -0.21
#  82   -3.47   -0.27    0.02    0.62   -0.06    0.00    0.00      -3.16    2.24   -0.23
#  83   -7.36   -1.24    3.23    1.80   -0.09    0.00    0.00      -3.66    5.42   -0.28
#  84   -4.03   -0.46    0.21    1.92   -0.09    0.00    0.00      -2.45    6.14   -0.28
#  85   -0.46   -0.11    0.01    0.56   -0.02    0.00    0.00      -0.03    5.05   -0.22
#  86   -0.45   -0.29    0.08    1.39   -0.05    0.00    0.00       0.68    6.75   -0.22
#  87   -2.55   -0.86    1.14    1.34   -0.10    0.00    0.00      -1.02    3.81   -0.28
#  88   -1.33   -0.51    0.38    0.66   -0.08    0.00    0.00      -0.87    2.39   -0.28
#  89   -0.29   -0.06    0.00    0.20   -0.01    0.00    0.00      -0.16    3.46   -0.22

@<TRIPOS>MOLECULE
          T539458        99
   89    92     0     0     0



@<TRIPOS>ATOM
      1 Cl1        15.6111   -10.1560    85.2135 Cl         1          -0.0347
      2 C1         13.9685    -9.7437    85.5947 C.ar       1          -0.0649
      3 C2         12.9293   -10.3192    84.8859 C.ar       1          -0.0550
      4 C3         11.6213    -9.9924    85.1876 C.ar       1          -0.1320
      5 C4         11.3496    -9.0862    86.2024 C.ar       1           0.1401
      6 O1         10.0631    -8.7641    86.5005 O.3        1          -0.3076
      7 C5          9.8252    -7.4521    87.0142 C.3        1           0.0497
      8 C6          8.4252    -6.9901    86.6047 C.3        1          -0.1234
      9 C7          8.1704    -5.5853    87.1546 C.3        1          -0.1010
     10 C8          7.7701    -5.6777    88.6298 C.3        1          -0.1479
     11 C9          6.4562    -6.4530    88.7485 C.3        1          -0.0119
     12 N1          5.4042    -5.7580    87.9971 N.4        1          -0.3816
     13 H1          5.3156    -4.8132    88.3400 H          1           0.4223
     14 C10         4.1285    -6.4641    88.1762 C.3        1          -0.0114
     15 C11         2.9718    -5.5209    87.8397 C.3        1          -0.1495
     16 C12         1.6431    -6.2563    88.0264 C.3        1          -0.1193
     17 C13         1.5167    -6.7202    89.4787 C.3        1          -0.1211
     18 C14         1.5623    -5.5057    90.4080 C.3        1          -0.1189
     19 C15         1.4359    -5.9695    91.8604 C.3        1          -0.1482
     20 C16         2.5925    -6.9129    92.1971 C.3        1          -0.0220
     21 N2          3.8683    -6.2068    92.0178 N.4        1          -0.3808
     22 H2          3.9506    -5.9012    91.0597 H          1           0.4266
     23 C17         4.9770    -7.1138    92.3377 C.3        1          -0.0113
     24 C18         4.8133    -7.6422    93.7644 C.3        1          -0.1417
     25 C19         4.8170    -6.4643    94.7428 C.3        1          -0.0977
     26 C20         4.5743    -6.9782    96.1634 C.3        1          -0.1152
     27 C21         5.8787    -7.5400    96.7322 C.3        1           0.0519
     28 O2          6.3339    -8.6150    95.9081 O.3        1          -0.3057
     29 C22         7.0450    -9.6006    96.5165 C.ar       1           0.1416
     30 C23         6.9986   -10.8962    96.0232 C.ar       1          -0.1933
     31 C24         7.7230   -11.8972    96.6433 C.ar       1           0.0071
     32 Cl2         7.6656   -13.5191    96.0269 Cl         1          -0.0361
     33 C25         8.4947   -11.6062    97.7558 C.ar       1          -0.0656
     34 Cl3         9.4047   -12.8641    98.5327 Cl         1          -0.0356
     35 C26         8.5416   -10.3144    98.2484 C.ar       1          -0.0545
     36 C27         7.8227    -9.3109    97.6282 C.ar       1          -0.1317
     37 C28         3.7033    -5.4874    94.3545 C.3        1          -0.1513
     38 C29         3.9089    -5.0397    92.9072 C.3        1          -0.0073
     39 C30         5.7476    -5.7288    86.5703 C.3        1          -0.0155
     40 C31         7.0343    -4.9257    86.3678 C.3        1          -0.1384
     41 C32        12.3921    -8.5095    86.9126 C.ar       1          -0.1926
     42 C33        13.6997    -8.8431    86.6119 C.ar       1           0.0071
     43 Cl4        15.0052    -8.1275    87.5048 Cl         1          -0.0341
     44 H3         13.1406   -11.0244    84.0957 H          1           0.1550
     45 H4         10.8105   -10.4419    84.6336 H          1           0.1482
     46 H5          9.8988    -7.4687    88.1015 H          1           0.0655
     47 H6         10.5675    -6.7636    86.6103 H          1           0.0729
     48 H7          8.3517    -6.9735    85.5172 H          1           0.0920
     49 H8          7.6829    -7.6785    87.0086 H          1           0.0713
     50 H9          9.0760    -4.9864    87.0583 H          1           0.1096
     51 H10         8.5503    -6.1962    89.1870 H          1           0.1146
     52 H11         7.6385    -4.6743    89.0347 H          1           0.0949
     53 H12         6.5890    -7.4563    88.3436 H          1           0.1309
     54 H13         6.1683    -6.5209    89.7976 H          1           0.1327
     55 H14         4.0961    -7.3293    87.5142 H          1           0.1294
     56 H15         4.0385    -6.7947    89.2110 H          1           0.1313
     57 H16         3.0043    -4.6555    88.5019 H          1           0.0875
     58 H17         3.0619    -5.1902    86.8050 H          1           0.0879
     59 H18         0.8192    -5.5842    87.7866 H          1           0.0763
     60 H19         1.6106    -7.1216    87.3643 H          1           0.0765
     61 H20         0.5702    -7.2442    89.6118 H          1           0.0704
     62 H21         2.3408    -7.3922    89.7186 H          1           0.0704
     63 H22         2.5087    -4.9817    90.2750 H          1           0.0762
     64 H23         0.7382    -4.8338    90.1683 H          1           0.0756
     65 H24         1.4682    -5.1042    92.5224 H          1           0.0874
     66 H25         0.4893    -6.4936    91.9934 H          1           0.0870
     67 H26         2.5024    -7.2435    93.2318 H          1           0.1304
     68 H27         2.5601    -7.7782    91.5350 H          1           0.1352
     69 H28         4.9750    -7.9501    91.6386 H          1           0.1310
     70 H29         5.9213    -6.5756    92.2561 H          1           0.1330
     71 H30         3.8694    -8.1811    93.8469 H          1           0.0899
     72 H31         5.6385    -8.3141    94.0005 H          1           0.1152
     73 H32         5.7805    -5.9566    94.6986 H          1           0.0968
     74 H33         4.2270    -6.1583    96.7919 H          1           0.0810
     75 H34         3.8192    -7.7641    96.1413 H          1           0.0890
     76 H35         6.6337    -6.7542    96.7543 H          1           0.0689
     77 H36         5.7056    -7.9063    97.7443 H          1           0.0651
     78 H37         6.3966   -11.1229    95.1556 H          1           0.1427
     79 H38         9.1440   -10.0894    99.1162 H          1           0.1552
     80 H39         7.8633    -8.3017    98.0108 H          1           0.1489
     81 H40         2.7363    -5.9815    94.4492 H          1           0.0915
     82 H41         3.7352    -4.6189    95.0125 H          1           0.1139
     83 H42         4.8759    -4.5457    92.8135 H          1           0.1333
     84 H43         3.1178    -4.3435    92.6287 H          1           0.1326
     85 H44         5.8955    -6.7475    86.2117 H          1           0.1306
     86 H45         4.9367    -5.2620    86.0112 H          1           0.1312
     87 H46         6.8873    -3.9067    86.7258 H          1           0.0934
     88 H47         7.2886    -4.9067    85.3080 H          1           0.1162
     89 H48        12.1825    -7.8036    87.7027 H          1           0.1438
@<TRIPOS>BOND
     1    1    2 1
     2    2   42 ar
     3    2    3 ar
     4    3    4 ar
     5    3   44 1
     6    4    5 ar
     7    4   45 1
     8    5    6 1
     9    5   41 ar
    10    6    7 1
    11    7    8 1
    12    7   46 1
    13    7   47 1
    14    8    9 1
    15    8   48 1
    16    8   49 1
    17    9   40 1
    18    9   10 1
    19    9   50 1
    20   10   11 1
    21   10   51 1
    22   10   52 1
    23   11   12 1
    24   11   53 1
    25   11   54 1
    26   12   13 1
    27   12   14 1
    28   12   39 1
    29   14   15 1
    30   14   55 1
    31   14   56 1
    32   15   16 1
    33   15   57 1
    34   15   58 1
    35   16   17 1
    36   16   59 1
    37   16   60 1
    38   17   18 1
    39   17   61 1
    40   17   62 1
    41   18   19 1
    42   18   63 1
    43   18   64 1
    44   19   20 1
    45   19   65 1
    46   19   66 1
    47   20   21 1
    48   20   67 1
    49   20   68 1
    50   21   22 1
    51   21   38 1
    52   21   23 1
    53   23   24 1
    54   23   69 1
    55   23   70 1
    56   24   25 1
    57   24   71 1
    58   24   72 1
    59   25   26 1
    60   25   37 1
    61   25   73 1
    62   26   27 1
    63   26   74 1
    64   26   75 1
    65   27   28 1
    66   27   76 1
    67   27   77 1
    68   28   29 1
    69   29   36 ar
    70   29   30 ar
    71   30   31 ar
    72   30   78 1
    73   31   32 1
    74   31   33 ar
    75   33   34 1
    76   33   35 ar
    77   35   36 ar
    78   35   79 1
    79   36   80 1
    80   37   38 1
    81   37   81 1
    82   37   82 1
    83   38   83 1
    84   38   84 1
    85   39   40 1
    86   39   85 1
    87   39   86 1
    88   40   87 1
    89   40   88 1
    90   41   42 ar
    91   41   89 1
    92   42   43 1
##########                 Name:              T542057
##########          Protonation:                   41
##########               SMILES:   c1ccc(cc1)CN2CC[NH+](CC2)CCNc3c4ccccc4[nH+]c5c3cccc5
##########            Long Name:   N-[2-(4-benzylpiperazin-1-ium-1-yl)ethyl]acridin-10-ium-9-amine
##########          FlexRecCode: 1
##########               Number:                  358
##########   Ligand Source File: /raidb/db2/rgc/tcams/tcams-0002195.db2.gz
##########           GlobalRank: 312
##########                 Rank:                    1
##########               Setnum:                   43
##########             Matchnum:                 3916
##########                Cloud:                    1
##########        Electrostatic:           -42.679306
##########        Van der Waals:           -29.360580
##########  Ligand Polar Desolv:            10.370609
########## Ligand Apolar Desolv:            -3.367331
##########      Internal Energy:             0.000000
##########      Receptor Energy: 0.0
########## Receptor Desolvation:             0.000000
########## Receptor Hydrophobic:             0.000000
##########         Total Energy: -65.04
##########        Ligand Charge:             2.000000
##########            Arbitrary:    +999.9990
##########     heavy atom count:   30
##########           pose count:    1
##########        Ligand Energy:             0.000000
# num electro vdwattr vdwrepu polsolv apolsol rdesolv rhydroe totalscore fullpol fullapo
#   1   -2.16   -0.33    0.02    0.78   -0.08    0.00    0.00      -1.77    4.52   -0.48
#   2    0.97   -0.32    0.01   -0.49   -0.05    0.00    0.00       0.12   -2.59   -0.28
#   3   11.59   -0.88    0.21   -4.01    0.11    0.00    0.00       7.01  -15.73    0.43
#   4  -17.28   -0.03    0.00    6.16    0.15    0.00    0.00     -11.00   23.18    0.56
#   5    0.36   -1.26    1.13    0.10   -0.12    0.00    0.00       0.21    0.35   -0.41
#   6   -0.47   -0.51    0.03    0.12   -0.10    0.00    0.00      -0.94    0.44   -0.39
#   7    7.38   -0.92    0.08   -5.55    0.97    0.00    0.00       1.97  -18.41    3.21
#   8   -0.41   -1.40    0.77    1.05   -0.14    0.00    0.00      -0.12    2.98   -0.39
#   9    1.00   -1.47    0.19   -0.57   -0.14    0.00    0.00      -0.99   -1.44   -0.34
#  10    1.03   -1.37    0.22   -0.79   -0.16    0.00    0.00      -1.07   -2.23   -0.45
#  11    1.53   -2.18    0.97   -1.05   -0.21    0.00    0.00      -0.93   -2.41   -0.47
#  12    1.84   -2.12    0.41   -1.38   -0.26    0.00    0.00      -1.50   -2.49   -0.47
#  13    2.12   -2.50    0.53   -1.49   -0.27    0.00    0.00      -1.61   -2.57   -0.47
#  14    1.55   -2.34    0.69   -1.13   -0.20    0.00    0.00      -1.43   -2.15   -0.37
#  15   -0.26   -0.59    0.07    0.01   -0.10    0.00    0.00      -0.87    0.05   -0.37
#  16    0.07   -0.51    0.02    0.26   -0.12    0.00    0.00      -0.28    0.90   -0.42
#  17   20.42   -1.38    0.32   -9.27    0.30    0.00    0.00      10.39  -32.82    1.06
#  18   -4.35   -1.19    0.23    4.62   -0.17    0.00    0.00      -0.86   16.87   -0.63
#  19    1.90   -1.41    0.47   -1.43   -0.11    0.00    0.00      -0.58   -5.20   -0.40
#  20    1.66   -1.93    0.73   -0.15   -0.14    0.00    0.00       0.17   -0.49   -0.45
#  21    3.14   -1.40    0.30   -1.71   -0.16    0.00    0.00       0.19   -5.08   -0.47
#  22   -0.03   -1.10    0.10   -0.48   -0.17    0.00    0.00      -1.68   -1.34   -0.47
#  23    1.58   -1.32    0.27   -1.82   -0.15    0.00    0.00      -1.44   -5.64   -0.46
#  24   -1.02   -1.14    0.24    1.72   -0.20    0.00    0.00      -0.39    6.38   -0.73
#  25    1.56   -1.14    0.23   -4.19    0.26    0.00    0.00      -3.28  -15.72    0.96
#  26   -1.41   -0.01    0.00    2.66    0.10    0.00    0.00       1.34   14.62    0.57
#  27   -0.51   -1.32    0.57    1.63   -0.18    0.00    0.00       0.20    6.61   -0.73
#  28    0.25   -1.36    0.44   -1.60   -0.12    0.00    0.00      -2.38   -6.10   -0.46
#  29    0.01   -0.95    0.14   -0.33   -0.12    0.00    0.00      -1.26   -1.26   -0.47
#  30    0.15   -0.68    0.06   -1.16   -0.11    0.00    0.00      -1.73   -5.13   -0.47
#  31    0.13   -0.83    0.15   -0.15   -0.10    0.00    0.00      -0.80   -0.67   -0.44
#  32    0.35   -1.05    0.24   -1.32   -0.10    0.00    0.00      -1.88   -5.23   -0.40
#  33   -2.26   -0.11    0.01    0.57   -0.03    0.00    0.00      -1.81    5.95   -0.27
#  34   -1.06   -0.05    0.00    0.29   -0.01    0.00    0.00      -0.82    6.72   -0.21
#  35   -1.79   -0.08    0.00    0.54   -0.01    0.00    0.00      -1.34    7.88   -0.20
#  36   -1.32   -0.10    0.01    0.63   -0.01    0.00    0.00      -0.80    6.51   -0.15
#  37   -5.79   -0.66    1.16    2.20   -0.05    0.00    0.00      -3.14    9.30   -0.22
#  38   -6.62   -0.64    1.00    1.33   -0.08    0.00    0.00      -5.01    4.92   -0.28
#  39   -0.66   -0.12    0.01    0.49   -0.02    0.00    0.00      -0.31    4.48   -0.22
#  40   -2.45   -0.23    0.04    0.50   -0.05    0.00    0.00      -2.19    2.69   -0.28
#  41    0.01   -0.77    0.55    0.89   -0.10    0.00    0.00       0.57    2.39   -0.28
#  42    0.24   -0.86    1.84    0.52   -0.08    0.00    0.00       1.66    1.84   -0.27
#  43   -1.18   -0.24    0.04    0.43   -0.05    0.00    0.00      -1.00    2.38   -0.28
#  44   -1.61   -0.69    0.59    0.37   -0.09    0.00    0.00      -1.43    1.17   -0.28
#  45   -2.54   -0.52    0.11    0.54   -0.14    0.00    0.00      -2.54    1.07   -0.28
#  46   -2.89   -0.84    0.38    1.31   -0.17    0.00    0.00      -2.20    2.22   -0.28
#  47   -1.47   -0.63    0.26    2.25   -0.13    0.00    0.00       0.27    4.71   -0.28
#  48   -0.20   -0.26    0.11    0.69   -0.03    0.00    0.00       0.30    4.27   -0.21
#  49   -1.79   -0.21    0.01    0.34   -0.05    0.00    0.00      -1.69    1.54   -0.21
#  50   -4.32   -0.22    0.01    1.02   -0.06    0.00    0.00      -3.57    4.55   -0.28
#  51   -3.06   -0.13    0.00    0.96   -0.03    0.00    0.00      -2.26    8.22   -0.28
#  52  -16.91   -0.05    0.00    6.19    0.19    0.00    0.00     -10.57   18.86    0.59
#  53   -6.27   -0.71    0.61    2.28   -0.08    0.00    0.00      -4.17    7.74   -0.27
#  54   -4.59   -0.35    0.13    1.10   -0.07    0.00    0.00      -3.78    4.15   -0.28
#  55   -4.59   -0.27    0.03    1.01   -0.08    0.00    0.00      -3.90    3.52   -0.28
#  56   -1.11   -0.70    0.83    1.21   -0.07    0.00    0.00       0.16    4.64   -0.28
#  57   -0.26   -0.30    0.07    1.10   -0.07    0.00    0.00       0.56    4.65   -0.28
#  58   -0.16   -0.20    0.02    0.84   -0.06    0.00    0.00       0.45    4.04   -0.28
#  59   -0.19   -0.09    0.00    0.55   -0.03    0.00    0.00       0.24    5.81   -0.28
#  60   -0.56   -0.14    0.02    1.19   -0.02    0.00    0.00       0.49    9.41   -0.18

@<TRIPOS>MOLECULE
          T542057        41
   60    64     0     0     0



@<TRIPOS>ATOM
      1 C1          4.6432    -7.0382    91.0174 C.3        1           0.1149
      2 C2          3.8332    -6.9559    92.3128 C.3        1          -0.0561
      3 N1          4.3555    -5.8666    93.1485 N.4        1          -0.3799
      4 H1          4.2800    -4.9935    92.6485 H          1           0.4286
      5 C3          5.7653    -6.1275    93.4676 C.3        1          -0.0098
      6 C4          5.8823    -7.4606    94.2098 C.3        1           0.0250
      7 N2          5.0856    -7.4027    95.4435 N.3        1          -0.5306
      8 C5          5.2176    -8.6462    96.2143 C.3        1           0.1004
      9 C6          6.5105    -8.6227    96.9882 C.ar       1          -0.1021
     10 C7          7.6670    -9.1197    96.4170 C.ar       1          -0.0935
     11 C8          8.8530    -9.0982    97.1268 C.ar       1          -0.1140
     12 C9          8.8826    -8.5795    98.4075 C.ar       1          -0.1056
     13 C10         7.7261    -8.0814    98.9785 C.ar       1          -0.1174
     14 C11         6.5411    -8.0990    98.2670 C.ar       1          -0.1205
     15 C12         3.6758    -7.1173    95.1415 C.3        1           0.0198
     16 C13         3.5772    -5.7873    94.3917 C.3        1          -0.0028
     17 N3          4.5337    -5.7705    90.2915 N.pl3      1          -0.7829
     18 C14         4.6094    -5.7555    88.9156 C.ar       1           0.3748
     19 C15         5.8460    -5.6119    88.2558 C.ar       1          -0.1255
     20 C16         7.0412    -5.4796    88.9830 C.ar       1          -0.0530
     21 C17         8.2216    -5.3428    88.3202 C.ar       1          -0.1101
     22 C18         8.2619    -5.3315    86.9260 C.ar       1           0.0011
     23 C19         7.1268    -5.4570    86.1891 C.ar       1          -0.1688
     24 C20         5.8825    -5.6015    86.8364 C.ar       1           0.2187
     25 N4          4.7627    -5.7255    86.1258 N.ar       1          -0.4892
     26 H2          4.8160    -5.7147    85.1572 H          1           0.4472
     27 C21         3.5722    -5.8642    86.7067 C.ar       1           0.2188
     28 C22         2.4066    -5.9938    85.9237 C.ar       1          -0.1616
     29 C23         1.1979    -6.1350    86.5289 C.ar       1          -0.0064
     30 C24         1.0852    -6.1547    87.9191 C.ar       1          -0.1085
     31 C25         2.1853    -6.0327    88.7100 C.ar       1          -0.0679
     32 C26         3.4534    -5.8893    88.1212 C.ar       1          -0.1298
     33 H3          5.6892    -7.2320    91.2547 H          1           0.1010
     34 H4          4.2556    -7.8466    90.3974 H          1           0.1046
     35 H5          2.7871    -6.7622    92.0755 H          1           0.1326
     36 H6          3.9145    -7.8992    92.8529 H          1           0.1395
     37 H7          6.3441    -6.1733    92.5450 H          1           0.1363
     38 H8          6.1496    -5.3257    94.0981 H          1           0.1470
     39 H9          5.5107    -8.2644    93.5743 H          1           0.0580
     40 H10         6.9267    -7.6472    94.4597 H          1           0.1272
     41 H11         4.3809    -8.7347    96.9073 H          1           0.0539
     42 H12         5.2170    -9.4975    95.5335 H          1           0.0985
     43 H13         7.6441    -9.5252    95.4163 H          1           0.1244
     44 H14         9.7564    -9.4871    96.6808 H          1           0.1289
     45 H15         9.8088    -8.5626    98.9627 H          1           0.1286
     46 H16         7.7491    -7.6761    99.9794 H          1           0.1261
     47 H17         5.6385    -7.7066    98.7117 H          1           0.1148
     48 H18         3.2679    -7.9156    94.5214 H          1           0.0574
     49 H19         3.1104    -7.0536    96.0712 H          1           0.1299
     50 H20         3.9726    -4.9872    95.0175 H          1           0.1462
     51 H21         2.5336    -5.5808    94.1545 H          1           0.1362
     52 H22         4.4082    -4.9415    90.7795 H          1           0.4305
     53 H23         7.0230    -5.4861    90.0628 H          1           0.1555
     54 H24         9.1391    -5.2413    88.8809 H          1           0.1574
     55 H25         9.2113    -5.2208    86.4232 H          1           0.1626
     56 H26         7.1776    -5.4456    85.1104 H          1           0.1632
     57 H27         2.4742    -5.9803    84.8460 H          1           0.1636
     58 H28         0.3093    -6.2335    85.9228 H          1           0.1622
     59 H29         0.1118    -6.2679    88.3733 H          1           0.1548
     60 H30         2.0851    -6.0495    89.7852 H          1           0.1459
@<TRIPOS>BOND
     1    1    2 1
     2    1   17 1
     3    1   33 1
     4    1   34 1
     5    2    3 1
     6    2   35 1
     7    2   36 1
     8    3    4 1
     9    3   16 1
    10    3    5 1
    11    5    6 1
    12    5   37 1
    13    5   38 1
    14    6    7 1
    15    6   39 1
    16    6   40 1
    17    7    8 1
    18    7   15 1
    19    8    9 1
    20    8   41 1
    21    8   42 1
    22    9   14 ar
    23    9   10 ar
    24   10   11 ar
    25   10   43 1
    26   11   12 ar
    27   11   44 1
    28   12   13 ar
    29   12   45 1
    30   13   14 ar
    31   13   46 1
    32   14   47 1
    33   15   16 1
    34   15   48 1
    35   15   49 1
    36   16   50 1
    37   16   51 1
    38   17   18 1
    39   17   52 1
    40   18   32 ar
    41   18   19 ar
    42   19   24 ar
    43   19   20 ar
    44   20   21 ar
    45   20   53 1
    46   21   22 ar
    47   21   54 1
    48   22   23 ar
    49   22   55 1
    50   23   24 ar
    51   23   56 1
    52   24   25 ar
    53   25   26 1
    54   25   27 ar
    55   27   32 ar
    56   27   28 ar
    57   28   29 ar
    58   28   57 1
    59   29   30 ar
    60   29   58 1
    61   30   31 ar
    62   30   59 1
    63   31   32 ar
    64   31   60 1
##########                 Name:              T539979
##########          Protonation:                   52
##########               SMILES:   c1ccc2c(c1)cc/c(=[NH+]\CCC[NH2+]Cc3cc4c([nH]3)cc(cc4Cl)Cl)/[nH]2
##########            Long Name:   chloro-1H-indol-2-yl)methyl-[3-(1H-quinolin-2-ylideneammonio)propyl]ammonium
##########          FlexRecCode: 1
##########               Number:                  335
##########   Ligand Source File: /raidb/db2/rgc/tcams/tcams-0001955.db2.gz
##########           GlobalRank: 314
##########                 Rank:                    1
##########               Setnum:                   56
##########             Matchnum:                  964
##########                Cloud:                    1
##########        Electrostatic:           -50.617287
##########        Van der Waals:           -23.401413
##########  Ligand Polar Desolv:            12.533096
########## Ligand Apolar Desolv:            -3.534821
##########      Internal Energy:             0.000000
##########      Receptor Energy: 0.0
########## Receptor Desolvation:             0.000000
########## Receptor Hydrophobic:             0.000000
##########         Total Energy: -65.02
##########        Ligand Charge:             2.000000
##########            Arbitrary:    +999.9990
##########     heavy atom count:   27
##########           pose count:    1
##########        Ligand Energy:             0.000000
# num electro vdwattr vdwrepu polsolv apolsol rdesolv rhydroe totalscore fullpol fullapo
#   1    0.11   -7.62    5.81   -0.90   -0.62    0.00    0.00      -3.21   -1.43   -0.99
#   2   -0.18   -2.33    1.17   -0.54   -0.16    0.00    0.00      -2.05   -1.00   -0.30
#   3    1.88   -2.52    0.99   -1.32   -0.25    0.00    0.00      -1.22   -2.40   -0.45
#   4   -0.53   -1.88    0.28   -0.12   -0.16    0.00    0.00      -2.41   -0.22   -0.30
#   5    0.72   -6.88    3.61   -0.82   -0.61    0.00    0.00      -3.97   -1.33   -0.99
#   6    1.49   -1.44    0.19   -1.22   -0.18    0.00    0.00      -1.17   -2.96   -0.43
#   7    1.48   -1.37    0.24   -2.30   -0.18    0.00    0.00      -2.13   -6.43   -0.51
#   8    0.20   -1.11    0.15    1.38   -0.21    0.00    0.00       0.41    4.61   -0.71
#   9   -0.85   -0.53    0.05    1.17   -0.11    0.00    0.00      -0.27    4.72   -0.44
#  10    8.23   -0.59    0.05   -6.15    0.17    0.00    0.00       1.71  -26.07    0.73
#  11   -3.60   -0.01    0.00    3.55    0.08    0.00    0.00       0.02   24.03    0.57
#  12  -10.26   -0.01    0.00    3.52    0.08    0.00    0.00      -6.67   24.32    0.57
#  13    0.11   -0.39    0.02    0.08   -0.08    0.00    0.00      -0.26    0.38   -0.40
#  14    4.09   -0.47    0.02   -2.20   -0.06    0.00    0.00       1.37   -8.88   -0.24
#  15   -1.89   -0.73    0.14    0.66   -0.10    0.00    0.00      -1.92    2.47   -0.38
#  16   19.58   -2.78    1.48   -8.74    0.56    0.00    0.00      10.09  -25.03    1.59
#  17  -22.21   -0.10    0.01    7.75    0.22    0.00    0.00     -14.33   20.37    0.57
#  18   -9.32   -2.75    1.93    7.65   -0.73    0.00    0.00      -3.23   21.71   -2.06
#  19   15.30   -5.60    8.93   -8.82    0.42    0.00    0.00      10.23  -21.83    1.04
#  20   -0.59   -2.77    2.66    1.50   -0.22    0.00    0.00       0.58    4.74   -0.69
#  21    0.71   -2.43    2.31   -1.24   -0.15    0.00    0.00      -0.79   -3.90   -0.46
#  22    0.16   -1.06    0.14   -0.73   -0.13    0.00    0.00      -1.62   -2.66   -0.47
#  23    0.34   -0.68    0.05   -0.86   -0.11    0.00    0.00      -1.26   -3.86   -0.47
#  24    0.10   -0.57    0.05   -0.38   -0.08    0.00    0.00      -0.89   -2.07   -0.46
#  25    0.33   -1.09    0.34   -0.91   -0.10    0.00    0.00      -1.42   -3.77   -0.40
#  26   -0.14   -0.84    0.13   -0.13   -0.10    0.00    0.00      -1.07   -0.56   -0.46
#  27    0.52   -1.53    1.00   -1.68   -0.11    0.00    0.00      -1.80   -6.34   -0.42
#  28    2.95   -1.26    0.16   -5.95    0.37    0.00    0.00      -3.74  -18.15    1.12
#  29   -1.10   -1.30    0.14    0.93   -0.29    0.00    0.00      -1.63    2.49   -0.78
#  30    0.92   -1.61    0.30   -0.95   -0.23    0.00    0.00      -1.57   -1.89   -0.46
#  31   -3.26   -0.84    0.57    0.47   -0.15    0.00    0.00      -3.21    0.87   -0.28
#  32   -3.22   -0.26    0.03    1.55   -0.07    0.00    0.00      -1.97    6.02   -0.28
#  33   -2.59   -0.16    0.02    1.58   -0.04    0.00    0.00      -1.20   10.29   -0.28
#  34   -0.64   -0.21    0.05    1.59   -0.04    0.00    0.00       0.74   10.31   -0.28
#  35   -4.17   -0.18    0.04    1.36   -0.04    0.00    0.00      -2.99    9.89   -0.28
#  36   -1.55   -0.09    0.00    0.78   -0.02    0.00    0.00      -0.88    9.42   -0.28
#  37   -2.01   -0.10    0.00    0.52   -0.03    0.00    0.00      -1.62    5.58   -0.28
#  38   -3.40   -0.21    0.02    1.25   -0.06    0.00    0.00      -2.39    6.11   -0.28
#  39   -1.39   -0.10    0.01    0.76   -0.02    0.00    0.00      -0.74    7.99   -0.26
#  40   -2.14   -0.36    0.14    1.69   -0.07    0.00    0.00      -0.74    7.14   -0.28
#  41  -27.16   -0.35    0.26    8.82    0.31    0.00    0.00     -18.11   16.64    0.59
#  42   -3.69   -0.93    2.07    1.32   -0.09    0.00    0.00      -1.31    4.34   -0.28
#  43   -0.73   -0.37    0.16    0.49   -0.06    0.00    0.00      -0.52    2.22   -0.28
#  44   -0.42   -0.15    0.02    0.24   -0.04    0.00    0.00      -0.35    1.88   -0.28
#  45   -0.27   -0.07    0.00    0.23   -0.02    0.00    0.00      -0.12    3.83   -0.28
#  46   -0.25   -0.09    0.00    0.60   -0.03    0.00    0.00       0.24    6.24   -0.28
#  47   -0.33   -0.25    0.13    1.76   -0.04    0.00    0.00       1.27   11.51   -0.25
#  48   -0.91   -0.02    0.00    4.00    0.14    0.00    0.00       3.21   17.30    0.59
#  49   -1.03   -0.29    0.02    1.29   -0.11    0.00    0.00      -0.11    3.43   -0.28

@<TRIPOS>MOLECULE
          T539979        52
   49    52     0     0     0



@<TRIPOS>ATOM
      1 Cl1         9.3751   -12.4220    99.5825 Cl         1          -0.0245
      2 C1          8.7828   -11.1006    98.6250 C.ar       1           0.0193
      3 C2          8.9614    -9.7960    99.0678 C.ar       1          -0.1200
      4 C3          8.5020    -8.7428    98.3271 C.ar       1           0.0329
      5 Cl2         8.7311    -7.1165    98.8895 Cl         1          -0.0342
      6 C4          7.8479    -8.9799    97.1152 C.ar       1          -0.1222
      7 C5          7.2457    -8.1152    96.0975 C.2        1          -0.1032
      8 C6          6.7586    -8.9182    95.1387 C.2        1          -0.0212
      9 C7          6.0516    -8.4486    93.8934 C.3        1           0.0734
     10 N1          5.0761    -7.4087    94.2468 N.4        1          -0.5127
     11 H1          4.4012    -7.7868    94.8946 H          1           0.4350
     12 H2          5.5545    -6.6306    94.6756 H          1           0.4288
     13 C8          4.3868    -6.9511    93.0330 C.3        1          -0.0053
     14 C9          3.3708    -5.8679    93.4011 C.3        1          -0.1732
     15 C10         2.6529    -5.3913    92.1369 C.3        1           0.0945
     16 N2          3.6329    -4.8423    91.1964 N.pl3      1          -0.6288
     17 H3          4.4426    -4.4241    91.5287 H          1           0.4291
     18 C11         3.4154    -4.9163    89.9048 C.cat      1           0.5480
     19 N3          4.3286    -4.4103    88.9919 N.pl3      1          -0.6130
     20 C12         4.5169    -5.1276    87.8182 C.ar       1           0.1592
     21 C13         5.7019    -5.0337    87.1029 C.ar       1          -0.1399
     22 C14         5.8598    -5.7596    85.9400 C.ar       1          -0.0394
     23 C15         4.8430    -6.5835    85.4794 C.ar       1          -0.1157
     24 C16         3.6594    -6.6898    86.1748 C.ar       1          -0.0443
     25 C17         3.4826    -5.9612    87.3552 C.ar       1          -0.1361
     26 C18         2.2325    -6.0536    88.1177 C.2        1           0.0744
     27 C19         2.1969    -5.5447    89.3715 C.2        1          -0.2408
     28 N4          6.9998   -10.2269    95.4594 N.pl3      1          -0.5842
     29 C20         7.6648   -10.2988    96.6629 C.ar       1           0.1466
     30 C21         8.1448   -11.3559    97.4300 C.ar       1          -0.1244
     31 H4          9.4666    -9.6125   100.0046 H          1           0.1569
     32 H5          7.2018    -7.0362    96.1154 H          1           0.1649
     33 H6          6.7808    -8.0401    93.1937 H          1           0.1455
     34 H7          5.5348    -9.2892    93.4301 H          1           0.1608
     35 H8          5.1158    -6.5425    92.3334 H          1           0.1429
     36 H9          3.8701    -7.7915    92.5698 H          1           0.1462
     37 H10         2.6417    -6.2763    94.1009 H          1           0.1080
     38 H11         3.8875    -5.0273    93.8643 H          1           0.1051
     39 H12         2.1360    -6.2317    91.6737 H          1           0.1147
     40 H13         1.9292    -4.6195    92.3992 H          1           0.1195
     41 H14         4.8150    -3.5895    89.1659 H          1           0.4430
     42 H15         6.4981    -4.3943    87.4547 H          1           0.1473
     43 H16         6.7825    -5.6855    85.3837 H          1           0.1528
     44 H17         4.9809    -7.1459    84.5678 H          1           0.1511
     45 H18         2.8715    -7.3325    85.8106 H          1           0.1543
     46 H19         1.3592    -6.5218    87.6880 H          1           0.1764
     47 H20         1.2948    -5.5961    89.9631 H          1           0.1830
     48 H21         6.7405   -10.9900    94.9195 H          1           0.4230
     49 H22         8.0147   -12.3734    97.0919 H          1           0.1469
@<TRIPOS>BOND
     1    1    2 1
     2    2   30 ar
     3    2    3 ar
     4    3    4 ar
     5    3   31 1
     6    4    5 1
     7    4    6 ar
     8    6   29 ar
     9    6    7 1
    10    7    8 2
    11    7   32 1
    12    8    9 1
    13    8   28 1
    14    9   10 1
    15    9   33 1
    16    9   34 1
    17   10   11 1
    18   10   12 1
    19   10   13 1
    20   13   14 1
    21   13   35 1
    22   13   36 1
    23   14   15 1
    24   14   37 1
    25   14   38 1
    26   15   16 1
    27   15   39 1
    28   15   40 1
    29   16   17 1
    30   16   18 2
    31   18   27 1
    32   18   19 1
    33   19   20 1
    34   19   41 1
    35   20   25 ar
    36   20   21 ar
    37   21   22 ar
    38   21   42 1
    39   22   23 ar
    40   22   43 1
    41   23   24 ar
    42   23   44 1
    43   24   25 ar
    44   24   45 1
    45   25   26 1
    46   26   27 2
    47   26   46 1
    48   27   47 1
    49   28   29 1
    50   28   48 1
    51   29   30 ar
    52   30   49 1
##########                 Name:              T542186
##########          Protonation:                   52
##########               SMILES:   CCCCCC[NH+]1CC[C@@H](CC1)[NH2+]Cc2cc(ccc2)[N+](=O)[O-]
##########            Long Name:   (1-hexylpiperidin-1-ium-4-yl)-[(3-nitrophenyl)methyl]ammonium
##########          FlexRecCode: 1
##########               Number:                  273
##########   Ligand Source File: /raidb/db2/rgc/tcams/tcams-0002248.db2.gz
##########           GlobalRank: 314
##########                 Rank:                    1
##########               Setnum:                  208
##########             Matchnum:                 6801
##########                Cloud:                    1
##########        Electrostatic:           -60.438118
##########        Van der Waals:           -19.882893
##########  Ligand Polar Desolv:            19.574865
########## Ligand Apolar Desolv:            -4.278846
##########      Internal Energy:             0.000000
##########      Receptor Energy: 0.0
########## Receptor Desolvation:             0.000000
########## Receptor Hydrophobic:             0.000000
##########         Total Energy: -65.02
##########        Ligand Charge:             2.000000
##########            Arbitrary:    +999.9990
##########     heavy atom count:   23
##########           pose count:    1
##########        Ligand Energy:             0.000000
# num electro vdwattr vdwrepu polsolv apolsol rdesolv rhydroe totalscore fullpol fullapo
#   1    3.71   -2.79    1.23   -1.81   -0.13    0.00    0.00       0.22   -2.68   -0.19
#   2    2.98   -1.53    0.21   -1.61   -0.15    0.00    0.00      -0.10   -2.60   -0.25
#   3    2.94   -1.24    0.14   -1.73   -0.13    0.00    0.00      -0.02   -2.95   -0.22
#   4    2.90   -0.91    0.10   -1.64   -0.10    0.00    0.00       0.35   -3.75   -0.22
#   5    5.07   -1.98    1.52   -2.34   -0.09    0.00    0.00       2.17   -5.49   -0.21
#   6    0.33   -1.03    0.32    0.30   -0.12    0.00    0.00      -0.22    0.84   -0.35
#   7    7.87   -0.61    0.02   -5.18    0.08    0.00    0.00       2.19  -18.10    0.27
#   8   -8.57   -0.01    0.00    3.64    0.08    0.00    0.00      -4.85   23.16    0.54
#   9    0.09   -0.35    0.01   -0.16   -0.07    0.00    0.00      -0.48   -0.81   -0.37
#  10    3.02   -0.35    0.01   -1.79   -0.05    0.00    0.00       0.84   -8.80   -0.24
#  11   -0.33   -0.47    0.02    0.66   -0.06    0.00    0.00      -0.17    2.67   -0.23
#  12    4.67   -0.73    0.05   -3.64   -0.07    0.00    0.00       0.27   -9.83   -0.20
#  13    0.05   -0.68    0.04   -0.07   -0.14    0.00    0.00      -0.81   -0.19   -0.38
#  14   19.92   -1.82    2.17   -8.64    0.20    0.00    0.00      11.83  -27.53    0.63
#  15  -23.04   -0.09    0.02    7.33    0.16    0.00    0.00     -15.63   26.39    0.56
#  16  -18.22   -0.03    0.00    6.97    0.15    0.00    0.00     -11.13   25.30    0.56
#  17   -1.39   -0.90    0.34    0.96   -0.11    0.00    0.00      -1.10    3.52   -0.40
#  18    3.18   -0.98    0.12   -0.98   -0.11    0.00    0.00       1.24   -3.44   -0.37
#  19    0.89   -1.21    0.14    0.16   -0.17    0.00    0.00      -0.19    0.42   -0.45
#  20    1.46   -1.26    0.11   -1.69   -0.19    0.00    0.00      -1.58   -4.22   -0.47
#  21    0.13   -1.41    0.18   -0.97   -0.17    0.00    0.00      -2.25   -2.63   -0.45
#  22    0.18   -1.44    0.33   -0.93   -0.23    0.00    0.00      -2.09   -2.82   -0.70
#  23    0.28   -1.02    0.16   -0.15   -0.11    0.00    0.00      -0.85   -0.57   -0.43
#  24    0.00   -2.61    1.29    0.20    0.16    0.00    0.00      -0.97    0.53    0.42
#  25   -0.08   -3.09    2.47   -1.30   -0.21    0.00    0.00      -2.22   -3.82   -0.63
#  26    0.11   -2.48    0.88   -0.84   -0.29    0.00    0.00      -2.61   -1.84   -0.63
#  27   -1.42   -1.05    0.35    0.07   -0.18    0.00    0.00      -2.23    0.10   -0.28
#  28   -1.32   -0.67    0.18    0.43   -0.17    0.00    0.00      -1.56    0.71   -0.28
#  29   -1.30   -2.27    6.60    0.51   -0.17    0.00    0.00       3.37    0.84   -0.28
#  30   -1.51   -0.64    0.42    0.32   -0.11    0.00    0.00      -1.52    0.79   -0.28
#  31   -1.47   -0.61    0.13    0.49   -0.14    0.00    0.00      -1.60    0.97   -0.28
#  32   -1.59   -0.78    0.52    0.69   -0.12    0.00    0.00      -1.28    1.58   -0.28
#  33   -1.63   -0.38    0.04    0.52   -0.12    0.00    0.00      -1.57    1.24   -0.28
#  34   -1.71   -0.29    0.09    0.34   -0.06    0.00    0.00      -1.64    1.48   -0.28
#  35   -1.56   -0.24    0.02    0.50   -0.07    0.00    0.00      -1.36    1.93   -0.28
#  36   -3.05   -0.76    0.62    1.75   -0.08    0.00    0.00      -1.52    4.38   -0.21
#  37   -3.79   -1.41    2.39    1.63   -0.13    0.00    0.00      -1.32    3.46   -0.28
#  38   -4.34   -0.52    0.45    1.98   -0.10    0.00    0.00      -2.53    5.78   -0.28
#  39   -2.50   -0.28    0.08    1.64   -0.07    0.00    0.00      -1.12    6.57   -0.28
#  40   -0.94   -0.17    0.02    1.13   -0.04    0.00    0.00       0.00    8.14   -0.28
#  41   -1.14   -0.07    0.00    0.37   -0.01    0.00    0.00      -0.85    5.64   -0.22
#  42   -1.87   -0.07    0.00    0.49   -0.02    0.00    0.00      -1.47    7.11   -0.28
#  43   -2.50   -0.15    0.01    1.06   -0.04    0.00    0.00      -1.62    6.83   -0.28
#  44   -2.44   -0.13    0.01    1.28   -0.03    0.00    0.00      -1.31   11.91   -0.28
#  45   -3.84   -0.32    0.04    2.17   -0.06    0.00    0.00      -2.01    7.93   -0.22
#  46   -3.56   -0.31    0.03    2.21   -0.09    0.00    0.00      -1.72    7.25   -0.28
#  47   -4.19   -0.35    0.06    2.35   -0.10    0.00    0.00      -2.24    6.41   -0.28
#  48   -2.89   -0.19    0.01    1.79   -0.06    0.00    0.00      -1.34    8.22   -0.28
#  49   -3.33   -0.12    0.01    1.23   -0.03    0.00    0.00      -2.23   10.26   -0.22
#  50   -5.97   -0.61    0.55    3.56   -0.08    0.00    0.00      -2.55   11.94   -0.28
#  51   -3.97   -0.28    0.03    3.70   -0.09    0.00    0.00      -0.61   11.24   -0.28
#  52   -2.58   -0.29    0.03    1.34   -0.09    0.00    0.00      -1.59    4.01   -0.28
#  53   -1.20   -0.43    0.15    0.18   -0.08    0.00    0.00      -1.39    0.60   -0.27
#  54   -0.99   -0.16    0.02    1.10   -0.04    0.00    0.00      -0.07    7.92   -0.27

@<TRIPOS>MOLECULE
          T542186        52
   54    55     0     0     0



@<TRIPOS>ATOM
      1 C1         -2.9263    -0.9326    92.9682 C.3        1          -0.1588
      2 C2         -2.0660    -2.1576    92.6509 C.3        1          -0.1273
      3 C3         -1.9774    -3.0528    93.8885 C.3        1          -0.1215
      4 C4         -1.1172    -4.2777    93.5713 C.3        1          -0.1201
      5 C5         -1.0286    -5.1730    94.8087 C.3        1          -0.1493
      6 C6         -0.1684    -6.3979    94.4916 C.3        1          -0.0124
      7 N1          1.1803    -5.9623    94.1048 N.4        1          -0.3895
      8 H1          1.1134    -5.1401    93.5239 H          1           0.4269
      9 C7          1.8435    -7.0362    93.3555 C.3        1          -0.0075
     10 C8          3.2175    -6.5584    92.8805 C.3        1          -0.1703
     11 C9          4.0690    -6.1809    94.0961 C.3        1           0.0137
     12 C10         3.3329    -5.1131    94.9107 C.3        1          -0.1738
     13 C11         1.9553    -5.6462    95.3105 C.3        1          -0.0020
     14 N2          5.3617    -5.6496    93.6443 N.4        1          -0.5082
     15 H2          5.2199    -5.0608    92.8372 H          1           0.4383
     16 H3          5.7807    -5.1085    94.3858 H          1           0.4316
     17 C12         6.2511    -6.7630    93.2880 C.3        1           0.0463
     18 C13         6.4630    -7.6424    94.4934 C.ar       1          -0.1745
     19 C14         6.7243    -7.0741    95.7264 C.ar       1          -0.0452
     20 C15         6.9186    -7.8806    96.8318 C.ar       1          -0.1030
     21 C16         6.8510    -9.2556    96.7049 C.ar       1          -0.0157
     22 C17         6.5889    -9.8237    95.4724 C.ar       1          -0.0403
     23 C18         6.3903    -9.0169    94.3674 C.ar       1          -0.0335
     24 N3          6.5171   -11.2959    95.3363 N.pl3      1           0.0195
     25 O1          6.2877   -11.7929    94.2582 O.2        1          -0.1231
     26 O2          6.6878   -12.0014    96.3031 O.3        1          -0.1440
     27 H4         -2.9894    -0.2948    92.0865 H          1           0.0616
     28 H5         -3.9268    -1.2559    93.2552 H          1           0.0560
     29 H6         -2.4754    -0.3746    93.7888 H          1           0.0554
     30 H7         -2.5169    -2.7155    91.8302 H          1           0.0647
     31 H8         -1.0653    -1.8342    92.3640 H          1           0.0641
     32 H9         -1.5266    -2.4948    94.7090 H          1           0.0655
     33 H10        -2.9781    -3.3761    94.1753 H          1           0.0666
     34 H11        -1.5681    -4.8357    92.7506 H          1           0.0766
     35 H12        -0.1166    -3.9545    93.2842 H          1           0.0755
     36 H13        -0.5778    -4.6149    95.6294 H          1           0.0863
     37 H14        -2.0291    -5.4962    95.0958 H          1           0.0889
     38 H15        -0.1053    -7.0356    95.3732 H          1           0.1394
     39 H16        -0.6192    -6.9559    93.6709 H          1           0.1358
     40 H17         1.9649    -7.9068    94.0000 H          1           0.1433
     41 H18         1.2347    -7.3060    92.4925 H          1           0.1539
     42 H19         3.7090    -7.3578    92.3259 H          1           0.1382
     43 H20         3.0971    -5.6879    92.2357 H          1           0.1133
     44 H21         4.2322    -7.0631    94.7149 H          1           0.1601
     45 H22         3.9070    -4.8794    95.8073 H          1           0.1377
     46 H23         3.2150    -4.2127    94.3080 H          1           0.1148
     47 H24         1.4291    -4.8890    95.8920 H          1           0.1529
     48 H25         2.0743    -6.5473    95.9122 H          1           0.1430
     49 H26         5.7986    -7.3476    92.4869 H          1           0.1464
     50 H27         7.2104    -6.3688    92.9529 H          1           0.1528
     51 H28         6.7770    -6.0000    95.8255 H          1           0.1535
     52 H29         7.1234    -7.4367    97.7948 H          1           0.1658
     53 H30         7.0036    -9.8859    97.5686 H          1           0.1710
     54 H31         6.1818    -9.4607    93.4051 H          1           0.1605
@<TRIPOS>BOND
     1    1    2 1
     2    1   27 1
     3    1   28 1
     4    1   29 1
     5    2    3 1
     6    2   30 1
     7    2   31 1
     8    3    4 1
     9    3   32 1
    10    3   33 1
    11    4    5 1
    12    4   34 1
    13    4   35 1
    14    5    6 1
    15    5   36 1
    16    5   37 1
    17    6    7 1
    18    6   38 1
    19    6   39 1
    20    7    8 1
    21    7   13 1
    22    7    9 1
    23    9   10 1
    24    9   40 1
    25    9   41 1
    26   10   11 1
    27   10   42 1
    28   10   43 1
    29   11   12 1
    30   11   14 1
    31   11   44 1
    32   12   13 1
    33   12   45 1
    34   12   46 1
    35   13   47 1
    36   13   48 1
    37   14   15 1
    38   14   16 1
    39   14   17 1
    40   17   18 1
    41   17   49 1
    42   17   50 1
    43   18   23 ar
    44   18   19 ar
    45   19   20 ar
    46   19   51 1
    47   20   21 ar
    48   20   52 1
    49   21   22 ar
    50   21   53 1
    51   22   23 ar
    52   22   24 1
    53   23   54 1
    54   24   25 2
    55   24   26 1
##########                 Name:              T528941
##########          Protonation:                   67
##########               SMILES:   COc1cc2c(c(cnc2c(c1)F)F)CC[NH+]3C[C@H]([C@@H](C3)O)CNCc4ccc5c(n4)NC(=O)CS5
##########            Long Name:   pyrrolidin-1-ium-3-yl]methylamino]methyl]-4H-pyrido[3,2-b][1,4]thiazin-3-one
##########          FlexRecCode: 1
##########               Number:                  254
##########   Ligand Source File: /raidb/db2/rgc/tcams/tcams-0000465.db2.gz
##########           GlobalRank: 316
##########                 Rank:                    1
##########               Setnum:                  178
##########             Matchnum:                 5259
##########                Cloud:                    1
##########        Electrostatic:           -55.427593
##########        Van der Waals:           -19.133547
##########  Ligand Polar Desolv:            11.210766
########## Ligand Apolar Desolv:            -1.659204
##########      Internal Energy:             0.000000
##########      Receptor Energy: 0.0
########## Receptor Desolvation:             0.000000
########## Receptor Hydrophobic:             0.000000
##########         Total Energy: -65.01
##########        Ligand Charge:             1.000000
##########            Arbitrary:    +999.9990
##########     heavy atom count:   36
##########           pose count:    1
##########        Ligand Energy:             0.000000
# num electro vdwattr vdwrepu polsolv apolsol rdesolv rhydroe totalscore fullpol fullapo
#   1   -0.18   -1.65    0.70    0.03    0.01    0.00    0.00      -1.09    0.08    0.03
#   2    1.49   -1.00    0.17   -1.30    0.26    0.00    0.00      -0.38   -4.59    0.93
#   3   -0.66   -1.52    0.39    0.65   -0.10    0.00    0.00      -1.23    2.03   -0.31
#   4    0.52   -2.40    0.91   -0.88   -0.18    0.00    0.00      -2.03   -2.10   -0.42
#   5   -0.43   -2.75    1.22    0.15   -0.15    0.00    0.00      -1.96    0.35   -0.34
#   6    0.20   -3.94    7.78   -0.29   -0.25    0.00    0.00       3.49   -0.55   -0.47
#   7   -0.30   -1.87    0.45    0.01   -0.28    0.00    0.00      -1.99    0.02   -0.73
#   8    3.87   -3.22    2.42   -1.72    0.91    0.00    0.00       2.26   -3.70    1.96
#   9   -1.38   -1.93    0.32    0.46   -0.50    0.00    0.00      -3.03    0.89   -0.97
#  10   -1.61   -1.49    0.25    0.45   -0.15    0.00    0.00      -2.55    1.04   -0.34
#  11    2.38   -2.10    3.90   -0.95   -0.22    0.00    0.00       3.00   -1.93   -0.45
#  12    1.63   -1.22    0.17   -0.11   -0.12    0.00    0.00       0.34   -0.33   -0.36
#  13    2.53   -1.12    0.40   -1.14   -0.07    0.00    0.00       0.59   -3.39   -0.20
#  14    0.09   -0.60    0.08    0.11   -0.09    0.00    0.00      -0.40    0.44   -0.35
#  15   16.54   -2.74    6.62   -3.52    0.12    0.00    0.00      17.01  -12.60    0.42
#  16  -30.28   -0.51    1.05    5.32    0.18    0.00    0.00     -24.23   16.17    0.56
#  17    1.75   -1.44    0.88   -0.34   -0.12    0.00    0.00       0.75   -1.10   -0.38
#  18   -2.23   -0.79    0.15    0.59   -0.04    0.00    0.00      -2.32    2.12   -0.15
#  19   11.45   -2.98    2.79   -5.04    0.62    0.00    0.00       6.85  -13.84    1.71
#  20    3.03   -0.91    0.29   -0.70   -0.05    0.00    0.00       1.66   -2.66   -0.20
#  21   -0.82   -0.27    0.01    0.20   -0.06    0.00    0.00      -0.94    1.27   -0.37
#  22    8.96   -0.34    0.01   -1.76    0.37    0.00    0.00       7.24  -12.88    2.71
#  23   -1.72   -0.46    0.03    0.44   -0.10    0.00    0.00      -1.80    1.94   -0.45
#  24   -3.01   -0.65    0.03    0.50   -0.18    0.00    0.00      -3.32    1.91   -0.70
#  25    3.15   -1.30    0.32   -0.58   -0.15    0.00    0.00       1.44   -1.80   -0.45
#  26    0.26   -1.54    0.36   -0.10   -0.15    0.00    0.00      -1.18   -0.30   -0.46
#  27    2.24   -0.88    0.11   -0.44   -0.08    0.00    0.00       0.95   -1.55   -0.28
#  28    0.26   -1.78    0.58   -0.17   -0.21    0.00    0.00      -1.32   -0.66   -0.80
#  29    1.25   -0.95    0.21   -0.30   -0.05    0.00    0.00       0.16   -0.84   -0.14
#  30   -3.52   -1.10    0.12    0.83   -0.24    0.00    0.00      -3.92    2.23   -0.65
#  31    0.40   -1.68    0.47   -0.08    0.17    0.00    0.00      -0.73   -0.20    0.42
#  32    7.00   -0.80    0.06   -1.15    0.49    0.00    0.00       5.59   -3.77    1.60
#  33   -5.36   -0.63    0.03    0.55   -0.50    0.00    0.00      -5.90    2.29   -2.06
#  34    9.55   -0.65    0.04   -1.07    0.44    0.00    0.00       8.31   -4.66    1.92
#  35   -0.06   -0.72    0.24    0.18   -0.10    0.00    0.00      -0.46    0.81   -0.43
#  36    0.01   -1.17    0.13   -0.10   -0.13    0.00    0.00      -1.26   -0.32   -0.40
#  37    1.21   -1.13    0.19   -0.57   -0.12    0.00    0.00      -0.43   -2.07   -0.43
#  38   -0.85   -0.37    0.14    0.20   -0.07    0.00    0.00      -0.95    0.76   -0.27
#  39   -2.34   -0.82    1.12    0.74   -0.10    0.00    0.00      -1.40    2.08   -0.28
#  40   -0.20   -1.28    2.24    0.41   -0.11    0.00    0.00       1.06    0.97   -0.27
#  41   -0.74   -0.81    1.09    0.66   -0.09    0.00    0.00       0.10    1.61   -0.22
#  42   -2.94   -0.53    0.10    1.02   -0.14    0.00    0.00      -2.49    2.03   -0.28
#  43   -3.58   -0.56    0.32    1.92   -0.08    0.00    0.00      -1.97    5.06   -0.20
#  44   -2.39   -0.50    0.36    1.03   -0.07    0.00    0.00      -1.57    4.07   -0.26
#  45   -2.02   -0.11    0.01    0.56   -0.03    0.00    0.00      -1.61    5.01   -0.28
#  46   -3.60   -0.15    0.01    0.76   -0.04    0.00    0.00      -3.02    5.74   -0.27
#  47   -3.90   -0.16    0.01    1.07   -0.04    0.00    0.00      -3.01    6.52   -0.26
#  48   -7.57   -1.22    1.93    2.32   -0.10    0.00    0.00      -4.64    6.12   -0.27
#  49   -1.47   -0.08    0.00    0.17   -0.02    0.00    0.00      -1.40    1.94   -0.24
#  50  -15.43   -0.11    0.01    4.89    0.58    0.00    0.00     -10.07   10.27    1.22
#  51   -5.86   -0.87    1.00    0.57   -0.08    0.00    0.00      -5.25    1.88   -0.27
#  52   -0.83   -0.04    0.00    0.09   -0.01    0.00    0.00      -0.79    2.33   -0.28
#  53   -0.23   -0.09    0.00    0.20   -0.03    0.00    0.00      -0.15    1.88   -0.28
#  54   -5.64    0.00    0.00    0.36    0.03    0.00    0.00      -5.26    5.79    0.49
#  55   -0.59   -0.12    0.01    0.27   -0.03    0.00    0.00      -0.46    2.32   -0.28
#  56   -1.46   -0.33    0.09    0.20   -0.06    0.00    0.00      -1.55    0.86   -0.28
#  57   -3.10   -0.67    0.70    0.85   -0.07    0.00    0.00      -2.30    3.19   -0.28
#  58   -3.48   -0.64    0.33    0.78   -0.11    0.00    0.00      -3.11    2.05   -0.28
#  59   -0.41   -0.28    0.07    0.31   -0.07    0.00    0.00      -0.37    1.31   -0.28
#  60   -2.46   -0.65    0.48    0.58   -0.11    0.00    0.00      -2.16    1.43   -0.28
#  61   -4.74   -0.02    0.00    0.54    0.11    0.00    0.00      -4.10    2.81    0.59
#  62   -4.15   -0.22    0.04    1.13   -0.06    0.00    0.00      -3.26    5.63   -0.28
#  63   -2.30   -0.08    0.00    0.41   -0.02    0.00    0.00      -1.98    5.96   -0.26
#  64   -1.34   -0.17    0.02    1.03   -0.03    0.00    0.00      -0.49    6.65   -0.22

@<TRIPOS>MOLECULE
          T528941        67
   64    68     0     0     0



@<TRIPOS>ATOM
      1 C1          7.0003   -13.3716    93.4783 C.3        1           0.0167
      2 O1          7.0197   -11.9458    93.3835 O.3        1          -0.3055
      3 C2          6.9625   -11.2493    94.5489 C.ar       1           0.1917
      4 C3          6.8947   -11.9387    95.7631 C.ar       1          -0.2250
      5 C4          6.8368   -11.2689    96.9473 C.ar       1           0.1975
      6 F1          6.7722   -11.9530    98.1104 F          1          -0.1033
      7 C5          6.8451    -9.8601    96.9556 C.ar       1           0.0511
      8 N1          6.7897    -9.1784    98.1038 N.ar       1          -0.4055
      9 C6          6.7972    -7.8681    98.1204 C.ar       1           0.0985
     10 C7          6.8628    -7.1198    96.9440 C.ar       1           0.0957
     11 F2          6.8686    -5.7700    96.9999 F          1          -0.1175
     12 C8          6.9217    -7.7557    95.7348 C.ar       1          -0.1019
     13 C9          6.9931    -6.9714    94.4499 C.3        1          -0.1006
     14 C10         5.5767    -6.6972    93.9404 C.3        1          -0.0034
     15 N2          5.6463    -5.9327    92.6879 N.4        1          -0.3914
     16 H1          6.3749    -5.2375    92.7491 H          1           0.4332
     17 C11         4.3575    -5.2843    92.4261 C.3        1          -0.0456
     18 C12         3.9125    -5.7577    91.0334 C.3        1           0.0893
     19 O2          3.2476    -4.7116    90.3227 O.3        1          -0.5441
     20 C13         5.2722    -6.0899    90.3877 C.3        1          -0.1044
     21 C14         5.1075    -7.0005    89.1693 C.3        1           0.0646
     22 N3          6.4268    -7.2877    88.5907 N.3        1          -0.6796
     23 C15         6.8895    -6.1714    87.7553 C.3        1           0.1114
     24 C16         8.3845    -6.2576    87.5851 C.ar       1           0.1605
     25 C17         8.9346    -6.0643    86.3331 C.ar       1          -0.1547
     26 C18        10.3133    -6.1425    86.1843 C.ar       1          -0.0132
     27 C19        11.0785    -6.4131    87.3072 C.ar       1          -0.1772
     28 S1         12.8355    -6.5163    87.1914 S.3        1          -0.0545
     29 C20        13.3709    -5.9701    88.8415 C.3        1          -0.1339
     30 C21        12.4917    -6.6214    89.8741 C.2        1           0.5316
     31 O3         12.9877    -6.9250    90.9384 O.2        1          -0.4973
     32 N4         11.2016    -6.8834    89.6857 N.am       1          -0.6441
     33 C22        10.4614    -6.6027    88.5461 C.ar       1           0.3714
     34 N5          9.1397    -6.5102    88.6353 N.ar       1          -0.4997
     35 C23         5.9113    -6.8362    91.5655 C.3        1           0.0022
     36 C24         6.9138    -9.1633    95.7236 C.ar       1          -0.0006
     37 C25         6.9776    -9.8834    94.5204 C.ar       1          -0.1870
     38 H2          7.0510   -13.8029    92.4786 H          1           0.0664
     39 H3          7.8563   -13.7084    94.0632 H          1           0.1130
     40 H4          6.0790   -13.6909    93.9655 H          1           0.0656
     41 H5          6.8878   -13.0187    95.7618 H          1           0.1599
     42 H6          6.7511    -7.3538    99.0690 H          1           0.1841
     43 H7          7.5040    -6.0255    94.6295 H          1           0.1074
     44 H8          7.5429    -7.5454    93.7039 H          1           0.1080
     45 H9          5.0657    -7.6431    93.7607 H          1           0.1365
     46 H10         5.0270    -6.1233    94.6862 H          1           0.1353
     47 H11         3.6266    -5.5868    93.1761 H          1           0.1421
     48 H12         4.4750    -4.2006    92.4338 H          1           0.1402
     49 H13         3.2823    -6.6441    91.1033 H          1           0.1028
     50 H14         3.7920    -3.9252    90.1800 H          1           0.3963
     51 H15         5.8267    -5.1860    90.1355 H          1           0.1324
     52 H16         4.6337    -7.9335    89.4745 H          1           0.0968
     53 H17         4.4849    -6.5031    88.4254 H          1           0.0447
     54 H18         7.0990    -7.5025    89.3120 H          1           0.3493
     55 H19         6.4090    -6.2252    86.7785 H          1           0.1003
     56 H20         6.6324    -5.2274    88.2354 H          1           0.0573
     57 H21         8.3023    -5.8558    85.4827 H          1           0.1502
     58 H22        10.7764    -5.9962    85.2197 H          1           0.1548
     59 H23        14.4074    -6.2646    89.0056 H          1           0.1587
     60 H24        13.2803    -4.8864    88.9152 H          1           0.1322
     61 H25        10.7315    -7.3131    90.4173 H          1           0.4185
     62 H26         6.9832    -6.9600    91.4103 H          1           0.1442
     63 H27         5.4307    -7.8021    91.7216 H          1           0.1371
     64 H28         7.0346    -9.3607    93.5771 H          1           0.1408
@<TRIPOS>BOND
     1    1    2 1
     2    1   38 1
     3    1   39 1
     4    1   40 1
     5    2    3 1
     6    3   37 ar
     7    3    4 ar
     8    4    5 ar
     9    4   41 1
    10    5    6 1
    11    5    7 ar
    12    7   36 ar
    13    7    8 ar
    14    8    9 ar
    15    9   10 ar
    16    9   42 1
    17   10   11 1
    18   10   12 ar
    19   12   13 1
    20   12   36 ar
    21   13   14 1
    22   13   43 1
    23   13   44 1
    24   14   15 1
    25   14   45 1
    26   14   46 1
    27   15   16 1
    28   15   35 1
    29   15   17 1
    30   17   18 1
    31   17   47 1
    32   17   48 1
    33   18   19 1
    34   18   20 1
    35   18   49 1
    36   19   50 1
    37   20   21 1
    38   20   35 1
    39   20   51 1
    40   21   22 1
    41   21   52 1
    42   21   53 1
    43   22   23 1
    44   22   54 1
    45   23   24 1
    46   23   55 1
    47   23   56 1
    48   24   34 ar
    49   24   25 ar
    50   25   26 ar
    51   25   57 1
    52   26   27 ar
    53   26   58 1
    54   27   33 ar
    55   27   28 1
    56   28   29 1
    57   29   30 1
    58   29   59 1
    59   29   60 1
    60   30   31 2
    61   30   32 am
    62   32   33 1
    63   32   61 1
    64   33   34 ar
    65   35   62 1
    66   35   63 1
    67   36   37 ar
    68   37   64 1
##########                 Name:              T536040
##########          Protonation:                   99
##########               SMILES:   )Oc2ccc(cc2)C[C@H](C)[NH2+]C[C@H](c3cccc(c3)Cl)O)[NH2+]C[C@H](c4cccc(c4)Cl)O
##########            Long Name:   enyl)-2-hydroxy-ethyl]ammonio]propyl]phenoxy]phenyl]-1-methyl-ethyl]ammonium
##########          FlexRecCode: 1
##########               Number:                  329
##########   Ligand Source File: /raidb/db2/rgc/tcams/tcams-0001585.db2.gz
##########           GlobalRank: 316
##########                 Rank:                    1
##########               Setnum:                   87
##########             Matchnum:                 4709
##########                Cloud:                    1
##########        Electrostatic:           -44.839008
##########        Van der Waals:           -24.560547
##########  Ligand Polar Desolv:             6.910616
########## Ligand Apolar Desolv:            -2.522016
##########      Internal Energy:             0.000000
##########      Receptor Energy: 0.0
########## Receptor Desolvation:             0.000000
########## Receptor Hydrophobic:             0.000000
##########         Total Energy: -65.01
##########        Ligand Charge:             2.000000
##########            Arbitrary:    +999.9990
##########     heavy atom count:   41
##########           pose count:    1
##########        Ligand Energy:             0.000000
# num electro vdwattr vdwrepu polsolv apolsol rdesolv rhydroe totalscore fullpol fullapo
#   1    0.09   -0.04    0.00   -0.19   -0.01    0.00    0.00      -0.15   -6.77   -0.19
#   2   -0.02   -0.04    0.00    0.08   -0.01    0.00    0.00       0.02    2.82   -0.24
#   3    0.09   -0.05    0.00   -0.13   -0.01    0.00    0.00      -0.09   -3.26   -0.21
#   4    0.17   -0.07    0.00   -0.12   -0.01    0.00    0.00      -0.03   -3.42   -0.33
#   5    0.15   -0.11    0.00   -0.09   -0.02    0.00    0.00      -0.07   -2.06   -0.45
#   6    0.57   -0.19    0.00   -0.33   -0.04    0.00    0.00       0.01   -4.22   -0.46
#   7   -0.41   -0.22    0.01    0.15   -0.03    0.00    0.00      -0.51    1.63   -0.31
#   8    0.62   -0.57    0.13   -0.95    0.07    0.00    0.00      -0.69   -6.08    0.47
#   9   -0.48   -0.66    0.11    0.15   -0.03    0.00    0.00      -0.91    0.79   -0.18
#  10    0.51   -1.09    0.24   -0.97   -0.11    0.00    0.00      -1.43   -3.96   -0.46
#  11    0.85   -1.10    0.21   -0.74   -0.12    0.00    0.00      -0.90   -2.81   -0.45
#  12    2.23   -1.23    0.34   -0.65   -0.09    0.00    0.00       0.60   -2.40   -0.33
#  13    2.94   -1.44    0.76   -1.36   -0.08    0.00    0.00       0.82   -3.61   -0.21
#  14   -0.84   -0.76    0.08    0.97   -0.09    0.00    0.00      -0.63    2.63   -0.24
#  15    2.97   -0.64    0.04   -2.48   -0.07    0.00    0.00      -0.17   -7.13   -0.19
#  16   16.83   -1.06    0.38   -6.21    0.19    0.00    0.00      10.13  -20.14    0.62
#  17  -20.64   -0.07    0.01    4.47    0.10    0.00    0.00     -16.13   18.49    0.42
#  18   -9.79   -0.01    0.00    2.27    0.06    0.00    0.00      -7.47   20.26    0.53
#  19    1.55   -0.87    0.08   -0.39   -0.14    0.00    0.00       0.23   -1.00   -0.36
#  20   -3.90   -1.16    0.38    1.82   -0.05    0.00    0.00      -2.91    5.08   -0.14
#  21   20.68   -3.15    2.25   -7.20    0.63    0.00    0.00      13.21  -18.78    1.64
#  22    2.39   -0.72    0.05   -0.59   -0.09    0.00    0.00       1.05   -2.39   -0.35
#  23    2.11   -0.79    0.04   -0.68   -0.13    0.00    0.00       0.54   -2.27   -0.44
#  24    1.70   -1.05    0.18   -0.75   -0.14    0.00    0.00      -0.06   -2.58   -0.47
#  25    0.36   -0.71    0.06   -0.67   -0.12    0.00    0.00      -1.08   -2.56   -0.46
#  26    0.13   -0.40    0.01   -0.23   -0.05    0.00    0.00      -0.54   -1.40   -0.30
#  27    0.04   -0.66    0.05   -0.24   -0.13    0.00    0.00      -0.94   -1.73   -0.99
#  28    1.12   -0.44    0.01   -0.40   -0.08    0.00    0.00       0.21   -2.33   -0.44
#  29    2.53   -0.77    0.09   -0.69   -0.09    0.00    0.00       1.07   -3.00   -0.38
#  30    1.23   -0.40    0.02   -0.58   -0.08    0.00    0.00       0.20   -3.55   -0.46
#  31    0.15   -0.13    0.00   -0.30   -0.03    0.00    0.00      -0.30   -4.90   -0.43
#  32    0.08   -0.07    0.00   -0.08   -0.01    0.00    0.00      -0.08   -2.31   -0.38
#  33    0.29   -0.08    0.00   -0.78    0.02    0.00    0.00      -0.55  -19.74    0.62
#  34   -0.15    0.00    0.00    0.35    0.01    0.00    0.00       0.21   19.87    0.56
#  35   -0.31    0.00    0.00    0.48    0.01    0.00    0.00       0.17   18.06    0.39
#  36    0.03   -0.05    0.00   -0.04   -0.01    0.00    0.00      -0.07   -1.12   -0.36
#  37   -0.07   -0.07    0.00    0.21   -0.01    0.00    0.00       0.06    5.27   -0.14
#  38    0.19   -0.14    0.00   -1.29    0.11    0.00    0.00      -1.12  -19.32    1.64
#  39    0.12   -0.23    0.00   -0.19   -0.03    0.00    0.00      -0.32   -2.45   -0.35
#  40    0.12   -0.27    0.01   -0.24   -0.04    0.00    0.00      -0.43   -2.35   -0.44
#  41    0.15   -0.79    0.10   -0.63   -0.11    0.00    0.00      -1.28   -2.71   -0.47
#  42    0.17   -1.35    0.24   -0.88   -0.15    0.00    0.00      -1.98   -2.73   -0.46
#  43    0.05   -0.92    0.08   -0.44   -0.09    0.00    0.00      -1.32   -1.48   -0.30
#  44    0.09   -3.99    2.02   -0.89   -0.47    0.00    0.00      -3.24   -1.87   -0.99
#  45    0.10   -0.53    0.05   -0.40   -0.07    0.00    0.00      -0.86   -2.42   -0.44
#  46   -0.03   -0.01    0.00    0.05    0.00    0.00    0.00       0.01    3.29   -0.21
#  47   -0.06   -0.01    0.00    0.03    0.00    0.00    0.00      -0.04    1.97   -0.28
#  48   -0.04   -0.02    0.00    0.07   -0.01    0.00    0.00       0.01    3.38   -0.28
#  49   -0.08   -0.01    0.00    0.10    0.00    0.00    0.00       0.01    6.01   -0.28
#  50   -0.12   -0.02    0.00    0.11   -0.01    0.00    0.00      -0.03    4.85   -0.28
#  51   -0.13   -0.02    0.00    0.08   -0.01    0.00    0.00      -0.08    3.11   -0.28
#  52   -0.28   -0.02    0.00    0.09   -0.01    0.00    0.00      -0.22    3.78   -0.28
#  53   -0.81   -0.07    0.00    0.09   -0.02    0.00    0.00      -0.80    1.38   -0.28
#  54   -0.32   -0.29    0.07    0.28   -0.06    0.00    0.00      -0.33    1.33   -0.28
#  55   -1.36   -0.20    0.02    0.68   -0.05    0.00    0.00      -0.91    4.09   -0.28
#  56   -2.43   -0.64    0.48    1.99   -0.10    0.00    0.00      -0.71    5.85   -0.28
#  57   -5.24   -0.92    1.15    1.45   -0.11    0.00    0.00      -3.67    3.83   -0.28
#  58   -4.58   -0.34    0.05    2.10   -0.10    0.00    0.00      -2.87    5.82   -0.28
#  59   -1.45   -0.20    0.01    0.89   -0.06    0.00    0.00      -0.81    3.86   -0.28
#  60   -0.94   -0.21    0.04    0.38   -0.05    0.00    0.00      -0.77    2.24   -0.28
#  61   -1.26   -0.21    0.01    0.75   -0.05    0.00    0.00      -0.76    3.40   -0.21
#  62   -3.69   -0.19    0.01    1.23   -0.04    0.00    0.00      -2.67    7.08   -0.22
#  63   -5.59   -0.42    0.05    2.61   -0.12    0.00    0.00      -3.46    6.16   -0.28
#  64   -3.44   -0.69    0.77    1.97   -0.10    0.00    0.00      -1.50    5.42   -0.28
#  65  -23.40   -0.20    0.06    6.74    0.46    0.00    0.00     -16.33   14.71    1.01
#  66   -3.17   -0.21    0.01    1.51   -0.06    0.00    0.00      -1.92    6.40   -0.24
#  67   -4.16   -0.53    0.42    0.85   -0.09    0.00    0.00      -3.50    2.66   -0.28
#  68   -0.37   -0.19    0.02    0.20   -0.06    0.00    0.00      -0.39    1.00   -0.28
#  69   -1.97   -0.08    0.00    0.30   -0.02    0.00    0.00      -1.77    4.01   -0.28
#  70   -4.11   -0.24    0.07    1.59   -0.05    0.00    0.00      -2.74    8.30   -0.28
#  71   -1.37   -0.04    0.00    0.14   -0.01    0.00    0.00      -1.27    3.82   -0.28
#  72   -0.05   -0.03    0.00    0.12   -0.01    0.00    0.00       0.03    3.42   -0.23
#  73   -0.09   -0.01    0.00    0.12    0.00    0.00    0.00       0.01    7.17   -0.28
#  74   -0.11   -0.01    0.00    0.14   -0.01    0.00    0.00       0.01    6.86   -0.28
#  75   -0.05   -0.01    0.00    0.10    0.00    0.00    0.00       0.03    6.38   -0.22
#  76   -0.05   -0.01    0.00    0.10    0.00    0.00    0.00       0.03    5.87   -0.28
#  77   -0.09    0.00    0.00    0.26    0.02    0.00    0.00       0.19   15.00    1.01
#  78   -0.11   -0.03    0.00    0.19   -0.01    0.00    0.00       0.05    6.60   -0.24
#  79   -0.24   -0.26    0.09    0.56   -0.05    0.00    0.00       0.09    2.89   -0.28
#  80   -0.34   -0.55    0.17    0.42   -0.11    0.00    0.00      -0.41    1.09   -0.28
#  81   -0.10   -0.17    0.05    0.50   -0.03    0.00    0.00       0.24    4.26   -0.28

@<TRIPOS>MOLECULE
          T536040        99
   81    84     0     0     0



@<TRIPOS>ATOM
      1 C1          8.1722   -14.4243    86.1561 C.3        1          -0.1860
      2 C2          9.2890   -13.4446    86.5214 C.3        1           0.0293
      3 C3          8.7161   -12.0288    86.6120 C.3        1          -0.0970
      4 C4          8.0327   -11.8478    87.9430 C.ar       1          -0.1553
      5 C5          8.7492   -11.3787    89.0285 C.ar       1          -0.0623
      6 C6          8.1252   -11.2118    90.2496 C.ar       1          -0.1303
      7 C7          6.7781   -11.5155    90.3862 C.ar       1           0.1355
      8 O1          6.1618   -11.3519    91.5861 O.3        1          -0.2541
      9 C8          6.4003   -10.2050    92.2746 C.ar       1           0.0932
     10 C9          6.6707   -10.2544    93.6347 C.ar       1          -0.1118
     11 C10         6.9132    -9.0870    94.3322 C.ar       1          -0.0866
     12 C11         6.8863    -7.8700    93.6764 C.ar       1          -0.1188
     13 C12         7.1513    -6.5981    94.4400 C.3        1          -0.1020
     14 C13         5.8323    -6.0449    94.9830 C.3        1           0.0292
     15 C14         5.1923    -7.0754    95.9153 C.3        1          -0.1853
     16 N1          4.9219    -5.7639    93.8650 N.4        1          -0.5063
     17 H1          5.4426    -5.3615    93.1001 H          1           0.4239
     18 H2          4.4875    -6.6225    93.5612 H          1           0.4295
     19 C15         3.8858    -4.8191    94.3027 C.3        1          -0.0481
     20 C16         2.9375    -4.5264    93.1382 C.3        1           0.1385
     21 O2          3.6903    -4.4068    91.9295 O.3        1          -0.5453
     22 C17         1.9456    -5.6528    93.0027 C.ar       1          -0.1321
     23 C18         0.7463    -5.6039    93.6889 C.ar       1          -0.1043
     24 C19        -0.1640    -6.6366    93.5648 C.ar       1          -0.0948
     25 C20         0.1242    -7.7191    92.7548 C.ar       1          -0.0894
     26 C21         1.3240    -7.7684    92.0681 C.ar       1          -0.0310
     27 Cl1         1.6865    -9.1273    91.0502 Cl         1          -0.0461
     28 C22         2.2325    -6.7318    92.1883 C.ar       1          -0.0947
     29 C23         6.6171    -7.8180    92.3212 C.ar       1          -0.1258
     30 C24         6.3796    -8.9829    91.6178 C.ar       1          -0.1143
     31 C25         6.0614   -11.9860    89.2952 C.ar       1          -0.1843
     32 C26         6.6889   -12.1457    88.0748 C.ar       1          -0.0976
     33 N2         10.3331   -13.4850    85.4889 N.4        1          -0.5061
     34 H3         10.4787   -14.4393    85.1950 H          1           0.4256
     35 H4         10.0452   -12.9297    84.6973 H          1           0.4273
     36 C27        11.5846   -12.9451    86.0366 C.3        1          -0.0480
     37 C28        12.6722   -12.9872    84.9612 C.3        1           0.1383
     38 O3         12.5654   -14.2062    84.2232 O.3        1          -0.5469
     39 C29        12.5001   -11.8174    84.0268 C.ar       1          -0.1315
     40 C30        13.1358   -10.6193    84.2950 C.ar       1          -0.1056
     41 C31        12.9789    -9.5461    83.4381 C.ar       1          -0.0958
     42 C32        12.1857    -9.6700    82.3127 C.ar       1          -0.0896
     43 C33        11.5495   -10.8686    82.0439 C.ar       1          -0.0305
     44 Cl2        10.5539   -11.0251    80.6305 Cl         1          -0.0439
     45 C34        11.7116   -11.9443    82.8989 C.ar       1          -0.0938
     46 H5          8.5803   -15.4330    86.0916 H          1           0.0840
     47 H6          7.3974   -14.3943    86.9223 H          1           0.1106
     48 H7          7.7429   -14.1438    85.1942 H          1           0.0854
     49 H8          9.7183   -13.7251    87.4833 H          1           0.1409
     50 H9          9.5238   -11.3031    86.5166 H          1           0.0992
     51 H10         7.9943   -11.8770    85.8095 H          1           0.1244
     52 H11         9.7977   -11.1429    88.9218 H          1           0.1421
     53 H12         8.6853   -10.8458    91.0973 H          1           0.1442
     54 H13         6.6911   -11.2046    94.1475 H          1           0.1422
     55 H14         7.1237    -9.1249    95.3909 H          1           0.1419
     56 H15         7.8270    -6.8065    95.2697 H          1           0.1024
     57 H16         7.6074    -5.8639    93.7759 H          1           0.1258
     58 H17         6.0241    -5.1249    95.5354 H          1           0.1422
     59 H18         4.2525    -6.6813    96.3022 H          1           0.0857
     60 H19         5.0006    -7.9954    95.3631 H          1           0.1103
     61 H20         5.8679    -7.2839    96.7450 H          1           0.0848
     62 H21         3.3232    -5.2538    95.1289 H          1           0.1425
     63 H22         4.3551    -3.8916    94.6310 H          1           0.1457
     64 H23         2.4052    -3.5945    93.3284 H          1           0.1304
     65 H24         4.3497    -3.6995    91.9451 H          1           0.3903
     66 H25         0.5209    -4.7588    94.3224 H          1           0.1295
     67 H26        -1.1008    -6.5979    94.1011 H          1           0.1436
     68 H27        -0.5869    -8.5262    92.6585 H          1           0.1446
     69 H28         3.1677    -6.7679    91.6491 H          1           0.1372
     70 H29         6.5963    -6.8662    91.8114 H          1           0.1337
     71 H30         6.1737    -8.9421    90.5583 H          1           0.1403
     72 H31         5.0128   -12.2230    89.3988 H          1           0.1331
     73 H32         6.1304   -12.5074    87.2241 H          1           0.1269
     74 H33        11.4274   -11.9143    86.3541 H          1           0.1380
     75 H34        11.8958   -13.5452    86.8917 H          1           0.1495
     76 H35        13.6528   -12.9334    85.4339 H          1           0.1328
     77 H36        12.6665   -15.0025    84.7625 H          1           0.3876
     78 H37        13.7550   -10.5218    85.1745 H          1           0.1274
     79 H38        13.4757    -8.6105    83.6482 H          1           0.1425
     80 H39        12.0627    -8.8312    81.6437 H          1           0.1445
     81 H40        11.2184   -12.8816    82.6875 H          1           0.1389
@<TRIPOS>BOND
     1    1    2 1
     2    1   46 1
     3    1   47 1
     4    1   48 1
     5    2    3 1
     6    2   33 1
     7    2   49 1
     8    3    4 1
     9    3   50 1
    10    3   51 1
    11    4   32 ar
    12    4    5 ar
    13    5    6 ar
    14    5   52 1
    15    6    7 ar
    16    6   53 1
    17    7    8 1
    18    7   31 ar
    19    8    9 1
    20    9   30 ar
    21    9   10 ar
    22   10   11 ar
    23   10   54 1
    24   11   12 ar
    25   11   55 1
    26   12   13 1
    27   12   29 ar
    28   13   14 1
    29   13   56 1
    30   13   57 1
    31   14   15 1
    32   14   16 1
    33   14   58 1
    34   15   59 1
    35   15   60 1
    36   15   61 1
    37   16   17 1
    38   16   18 1
    39   16   19 1
    40   19   20 1
    41   19   62 1
    42   19   63 1
    43   20   21 1
    44   20   22 1
    45   20   64 1
    46   21   65 1
    47   22   28 ar
    48   22   23 ar
    49   23   24 ar
    50   23   66 1
    51   24   25 ar
    52   24   67 1
    53   25   26 ar
    54   25   68 1
    55   26   27 1
    56   26   28 ar
    57   28   69 1
    58   29   30 ar
    59   29   70 1
    60   30   71 1
    61   31   32 ar
    62   31   72 1
    63   32   73 1
    64   33   34 1
    65   33   35 1
    66   33   36 1
    67   36   37 1
    68   36   74 1
    69   36   75 1
    70   37   38 1
    71   37   39 1
    72   37   76 1
    73   38   77 1
    74   39   45 ar
    75   39   40 ar
    76   40   41 ar
    77   40   78 1
    78   41   42 ar
    79   41   79 1
    80   42   43 ar
    81   42   80 1
    82   43   44 1
    83   43   45 ar
    84   45   81 1
##########                 Name:              T529302
##########          Protonation:                   75
##########               SMILES:   Cc1c(sc(c1Br)C(F)F)C[NH2+]CCC[NH+]=c2[nH]c3ccccc3[nH]2
##########            Long Name:   -thienyl]methyl-[3-(1,3-dihydrobenzimidazol-2-ylideneammonio)propyl]ammonium
##########          FlexRecCode: 1
##########               Number:                    2
##########   Ligand Source File: /raidb/db2/rgc/tcams/tcams-0000532.db2.gz
##########           GlobalRank: 317
##########                 Rank:                    1
##########               Setnum:                   35
##########             Matchnum:                 1026
##########                Cloud:                    1
##########        Electrostatic:           -53.855179
##########        Van der Waals:           -25.240974
##########  Ligand Polar Desolv:            18.015141
########## Ligand Apolar Desolv:            -3.904881
##########      Internal Energy:             0.000000
##########      Receptor Energy: 0.0
########## Receptor Desolvation:             0.000000
########## Receptor Hydrophobic:             0.000000
##########         Total Energy: -64.99
##########        Ligand Charge:             2.000000
##########            Arbitrary:    +999.9990
##########     heavy atom count:   25
##########           pose count:    1
##########        Ligand Energy:             0.000000
# num electro vdwattr vdwrepu polsolv apolsol rdesolv rhydroe totalscore fullpol fullapo
#   1    0.41   -0.79    0.23   -1.01   -0.05    0.00    0.00      -1.21   -3.92   -0.19
#   2    0.22   -1.36    0.46   -0.93   -0.11    0.00    0.00      -1.71   -3.44   -0.40
#   3    7.63   -1.56    0.49   -1.00   -0.08    0.00    0.00       5.47   -3.55   -0.29
#   4   -2.96   -0.89    0.28    1.29   -0.11    0.00    0.00      -2.39    4.94   -0.43
#   5   20.38   -2.61    5.15   -7.15    0.21    0.00    0.00      15.97  -25.40    0.73
#   6  -13.00   -0.02    0.00    4.64    0.11    0.00    0.00      -8.26   23.61    0.57
#   7  -29.75   -0.52    0.97    8.36    0.20    0.00    0.00     -20.73   23.30    0.57
#   8    0.19   -0.75    0.27    0.05   -0.10    0.00    0.00      -0.34    0.19   -0.40
#   9    4.95   -0.82    0.19   -2.59   -0.07    0.00    0.00       1.65   -8.51   -0.24
#  10   -1.90   -0.56    0.02    0.91   -0.13    0.00    0.00      -1.64    2.93   -0.41
#  11   11.55   -1.25    0.14  -10.86    0.67    0.00    0.00       0.24  -26.61    1.64
#  12   -8.49   -0.04    0.00    6.29    0.17    0.00    0.00      -2.07   21.17    0.57
#  13   -8.76   -1.25    0.10   10.92   -1.99    0.00    0.00      -0.98   27.19   -4.95
#  14    4.24   -1.27    0.13   -7.33    0.40    0.00    0.00      -3.84  -21.14    1.16
#  15   -0.55   -1.47    0.22    1.00   -0.29    0.00    0.00      -1.09    2.65   -0.77
#  16    0.50   -1.49    0.18   -1.21   -0.22    0.00    0.00      -2.24   -2.66   -0.48
#  17    0.55   -1.72    0.19   -1.88   -0.27    0.00    0.00      -3.11   -3.30   -0.47
#  18    0.59   -2.19    0.56   -1.85   -0.27    0.00    0.00      -3.16   -3.22   -0.47
#  19    1.05   -2.29    0.98   -1.59   -0.26    0.00    0.00      -2.11   -2.97   -0.48
#  20   -0.96   -1.77    0.47    1.04   -0.36    0.00    0.00      -1.58    2.24   -0.77
#  21    8.67   -1.63    0.16  -10.67    0.62    0.00    0.00      -2.85  -20.82    1.21
#  22   -6.54   -3.49    2.22    1.82   -0.27    0.00    0.00      -6.27    5.60   -0.82
#  23    4.09   -1.24    0.17   -2.21   -0.11    0.00    0.00       0.69   -6.24   -0.30
#  24  -10.48   -1.09    0.19    2.09   -0.05    0.00    0.00      -9.34    4.98   -0.11
#  25    6.67   -1.53    0.48   -1.47   -0.23    0.00    0.00       3.93   -3.10   -0.48
#  26    3.72   -0.81    0.15   -0.95   -0.15    0.00    0.00       1.97   -2.73   -0.42
#  27    0.95   -1.37    0.40   -0.61   -0.09    0.00    0.00      -0.72   -1.99   -0.29
#  28   -0.10   -4.39    1.74   -0.66   -0.35    0.00    0.00      -3.77   -1.82   -0.97
#  29   -0.27   -0.14    0.01    0.62   -0.04    0.00    0.00       0.18    3.92   -0.28
#  30   -0.20   -1.00    2.44    1.76   -0.07    0.00    0.00       2.94    6.08   -0.23
#  31   -0.25   -0.09    0.00    0.00   -0.02    0.00    0.00      -0.36   -0.02   -0.23
#  32   -5.02   -0.38    0.13    2.70   -0.08    0.00    0.00      -2.65    9.90   -0.28
#  33   -2.58   -0.08    0.00    0.77   -0.02    0.00    0.00      -1.90   10.62   -0.24
#  34   -4.85   -0.23    0.05    1.69   -0.05    0.00    0.00      -3.39    9.35   -0.28
#  35   -2.47   -0.09    0.00    0.82   -0.02    0.00    0.00      -1.76    9.77   -0.28
#  36   -2.55   -0.26    0.06    1.29   -0.06    0.00    0.00      -1.52    6.14   -0.28
#  37   -4.55   -0.53    0.48    1.89   -0.09    0.00    0.00      -2.80    5.93   -0.28
#  38   -2.41   -0.16    0.01    1.01   -0.04    0.00    0.00      -1.61    6.48   -0.28
#  39   -1.01   -0.19    0.03    1.04   -0.04    0.00    0.00      -0.17    6.64   -0.28
#  40   -1.90   -0.02    0.00    4.20    0.12    0.00    0.00       2.40   19.76    0.57
#  41   -0.64   -0.33    0.05    1.46   -0.08    0.00    0.00       0.47    4.92   -0.28
#  42   -1.37   -0.42    0.06    1.42   -0.14    0.00    0.00      -0.46    2.76   -0.28
#  43   -0.74   -0.65    0.34    1.40   -0.16    0.00    0.00       0.19    2.44   -0.28
#  44   -2.71   -0.60    0.25    1.90   -0.14    0.00    0.00      -1.30    3.81   -0.28
#  45   -8.26   -0.03    0.00    8.58    0.29    0.00    0.00       0.59   17.43    0.59
#  46   -4.97   -0.47    0.16    1.04   -0.10    0.00    0.00      -4.34    2.81   -0.28

@<TRIPOS>MOLECULE
          T529302        75
   46    48     0     0     0



@<TRIPOS>ATOM
      1 C1          4.1032    -5.8055    87.6800 C.3        1          -0.1323
      2 C2          5.5581    -5.6325    88.0330 C.2        1          -0.0250
      3 C3          5.9775    -5.7799    89.3136 C.2        1          -0.2785
      4 C4          5.1727    -6.1141    90.5431 C.3        1           0.1017
      5 N1          6.0622    -6.1676    91.7109 N.4        1          -0.5124
      6 H1          6.7653    -6.8768    91.5659 H          1           0.4327
      7 H2          6.5090    -5.2714    91.8348 H          1           0.4325
      8 C5          5.2779    -6.4934    92.9095 C.3        1          -0.0062
      9 C6          6.2044    -6.5491    94.1257 C.3        1          -0.1688
     10 C7          5.3874    -6.8885    95.3741 C.3        1           0.0997
     11 N2          6.2745    -6.9418    96.5387 N.pl3      1          -0.6567
     12 H3          6.4375    -6.1409    97.0613 H          1           0.4444
     13 C8          6.8461    -8.0678    96.8735 C.cat      1           0.6649
     14 N3          6.7021    -9.2630    96.2160 N.pl3      1          -0.5778
     15 C9          7.4689   -10.2198    96.8798 C.ar       1           0.0770
     16 C10         7.6897   -11.5710    96.6547 C.ar       1          -0.0848
     17 C11         8.5193   -12.2832    97.4988 C.ar       1          -0.0740
     18 C12         9.1313   -11.6543    98.5690 C.ar       1          -0.0734
     19 C13         8.9171   -10.3096    98.8013 C.ar       1          -0.0835
     20 C14         8.0862    -9.5858    97.9584 C.ar       1           0.0800
     21 N4          7.6936    -8.2480    97.9370 N.pl3      1          -0.5768
     22 S1          7.7303    -5.4753    89.1657 S.3        1           0.2021
     23 C15         7.7861    -5.1721    87.4073 C.2        1          -0.1662
     24 C16         8.9716    -4.8382    86.5391 C.3        1           0.3487
     25 F1          9.9190    -4.1370    87.2927 F          1          -0.1812
     26 F2          9.5427    -6.0202    86.0552 F          1          -0.1669
     27 C17         6.4859    -5.3265    87.0546 C.2        1          -0.1171
     28 Br1         5.9488    -5.1190    85.2534 Br         1           0.0240
     29 H4          3.5363    -6.0416    88.5806 H          1           0.0890
     30 H5          3.7230    -4.8821    87.2431 H          1           0.0790
     31 H6          3.9979    -6.6180    86.9610 H          1           0.0970
     32 H7          4.4132    -5.3481    90.6996 H          1           0.1515
     33 H8          4.6901    -7.0822    90.4094 H          1           0.1556
     34 H9          4.5184    -5.7274    93.0660 H          1           0.1444
     35 H10         4.7953    -7.4616    92.7757 H          1           0.1445
     36 H11         6.9639    -7.3153    93.9693 H          1           0.1094
     37 H12         6.6871    -5.5811    94.2594 H          1           0.1095
     38 H13         4.6279    -6.1224    95.5306 H          1           0.1066
     39 H14         4.9047    -7.8565    95.2404 H          1           0.1065
     40 H15         6.1601    -9.4162    95.4261 H          1           0.4541
     41 H16         7.2133   -12.0652    95.8210 H          1           0.1503
     42 H17         8.6907   -13.3349    97.3231 H          1           0.1576
     43 H18         9.7784   -12.2172    99.2253 H          1           0.1579
     44 H19         9.3958    -9.8225    99.6379 H          1           0.1516
     45 H20         7.9700    -7.5639    98.5666 H          1           0.4586
     46 H21         8.6461    -4.2223    85.7008 H          1           0.1508
@<TRIPOS>BOND
     1    1    2 1
     2    1   29 1
     3    1   30 1
     4    1   31 1
     5    2   27 1
     6    2    3 2
     7    3    4 1
     8    3   22 1
     9    4    5 1
    10    4   32 1
    11    4   33 1
    12    5    6 1
    13    5    7 1
    14    5    8 1
    15    8    9 1
    16    8   34 1
    17    8   35 1
    18    9   10 1
    19    9   36 1
    20    9   37 1
    21   10   11 1
    22   10   38 1
    23   10   39 1
    24   11   12 1
    25   11   13 2
    26   13   21 1
    27   13   14 1
    28   14   15 1
    29   14   40 1
    30   15   20 ar
    31   15   16 ar
    32   16   17 ar
    33   16   41 1
    34   17   18 ar
    35   17   42 1
    36   18   19 ar
    37   18   43 1
    38   19   20 ar
    39   19   44 1
    40   20   21 1
    41   21   45 1
    42   22   23 1
    43   23   24 1
    44   23   27 2
    45   24   25 1
    46   24   26 1
    47   24   46 1
    48   27   28 1
##########                 Name:              T526787
##########          Protonation:                   94
##########               SMILES:   c1ccc(cc1)COc2ccccc2C[NH2+]C[C@@H](c3cccc(c3)Br)O
##########            Long Name:   (2-benzyloxyphenyl)methyl-[(2R)-2-(3-bromophenyl)-2-hydroxy-ethyl]ammonium
##########          FlexRecCode: 1
##########               Number:                  229
##########   Ligand Source File: /raidb/db2/rgc/tcams/tcams-0000207.db2.gz
##########           GlobalRank: 319
##########                 Rank:                    1
##########               Setnum:                  355
##########             Matchnum:                 3037
##########                Cloud:                    1
##########        Electrostatic:           -45.619789
##########        Van der Waals:           -24.923445
##########  Ligand Polar Desolv:             7.491089
########## Ligand Apolar Desolv:            -1.923624
##########      Internal Energy:             0.000000
##########      Receptor Energy: 0.0
########## Receptor Desolvation:             0.000000
########## Receptor Hydrophobic:             0.000000
##########         Total Energy: -64.98
##########        Ligand Charge:             1.000000
##########            Arbitrary:    +999.9990
##########     heavy atom count:   26
##########           pose count:    1
##########        Ligand Energy:             0.000000
# num electro vdwattr vdwrepu polsolv apolsol rdesolv rhydroe totalscore fullpol fullapo
#   1   27.25   -4.23    2.80   -7.99    0.89    0.00    0.00      18.72  -14.46    1.61
#   2   -4.98   -1.19    0.19    1.73   -0.07    0.00    0.00      -4.32    3.89   -0.15
#   3    1.29   -0.72    0.09   -0.16   -0.11    0.00    0.00       0.38   -0.53   -0.38
#   4   20.92   -2.43    2.68   -5.04    0.23    0.00    0.00      16.36  -16.15    0.73
#   5  -24.85   -0.14    0.03    6.37    0.22    0.00    0.00     -18.36   16.16    0.57
#   6  -20.75   -0.07    0.01    3.48    0.13    0.00    0.00     -17.20   14.20    0.52
#   7   -1.31   -0.58    0.07    0.55   -0.09    0.00    0.00      -1.37    2.25   -0.39
#   8    4.63   -1.09    0.21   -0.93   -0.10    0.00    0.00       2.73   -3.61   -0.37
#   9    1.55   -1.54    0.63   -0.24   -0.12    0.00    0.00       0.28   -0.91   -0.45
#  10    3.71   -1.00    0.15   -0.80   -0.12    0.00    0.00       1.95   -3.23   -0.47
#  11    0.59   -0.81    0.09   -0.37   -0.11    0.00    0.00      -0.62   -1.53   -0.47
#  12    0.80   -1.00    0.20   -0.91   -0.10    0.00    0.00      -1.00   -3.80   -0.42
#  13   -0.99   -0.97    0.15    0.66   -0.08    0.00    0.00      -1.23    2.63   -0.31
#  14    0.82   -0.84    0.13   -1.49    0.21    0.00    0.00      -1.18   -5.83    0.81
#  15   -0.19   -0.28    0.01    0.30   -0.02    0.00    0.00      -0.17    1.83   -0.10
#  16    0.15   -0.34    0.01   -0.19   -0.05    0.00    0.00      -0.43   -1.42   -0.39
#  17    0.13   -0.21    0.00   -0.11   -0.04    0.00    0.00      -0.22   -1.39   -0.45
#  18    0.18   -0.28    0.01   -0.20   -0.05    0.00    0.00      -0.35   -1.81   -0.47
#  19    0.15   -0.50    0.03   -0.34   -0.10    0.00    0.00      -0.77   -1.58   -0.47
#  20    0.12   -0.66    0.04   -0.47   -0.13    0.00    0.00      -1.10   -1.72   -0.47
#  21    0.10   -0.60    0.03   -0.38   -0.11    0.00    0.00      -0.97   -1.49   -0.45
#  22    4.47   -1.61    0.27   -0.89   -0.15    0.00    0.00       2.10   -2.00   -0.34
#  23    3.66   -2.96    1.34   -0.88   -0.24    0.00    0.00       0.92   -1.63   -0.44
#  24    3.09   -2.96    1.09   -1.03   -0.25    0.00    0.00      -0.06   -1.93   -0.47
#  25    1.52   -2.05    0.61   -0.68   -0.21    0.00    0.00      -0.80   -1.52   -0.46
#  26    1.51   -1.21    0.13   -0.60   -0.12    0.00    0.00      -0.28   -1.50   -0.30
#  27    0.20   -6.74    4.58   -0.43   -0.47    0.00    0.00      -2.86   -0.98   -1.09
#  28    1.60   -1.06    0.08   -0.51   -0.16    0.00    0.00      -0.05   -1.44   -0.44
#  29  -28.00   -0.33    0.23    6.10    0.55    0.00    0.00     -21.45   11.16    1.00
#  30   -4.13   -0.39    0.07    1.52   -0.10    0.00    0.00      -3.03    4.48   -0.28
#  31   -2.89   -0.10    0.00    0.53   -0.03    0.00    0.00      -2.49    5.31   -0.28
#  32   -3.58   -0.21    0.02    1.32   -0.06    0.00    0.00      -2.50    6.36   -0.28
#  33   -2.13   -0.07    0.00    0.29   -0.02    0.00    0.00      -1.93    4.41   -0.27
#  34   -2.19   -0.17    0.02    1.21   -0.05    0.00    0.00      -1.19    6.67   -0.28
#  35   -5.07   -0.42    0.26    1.20   -0.06    0.00    0.00      -4.09    5.20   -0.28
#  36   -3.38   -0.17    0.02    0.29   -0.04    0.00    0.00      -3.28    1.84   -0.28
#  37   -1.80   -0.14    0.01    0.17   -0.04    0.00    0.00      -1.81    1.20   -0.28
#  38   -0.47   -0.19    0.03    0.27   -0.03    0.00    0.00      -0.40    1.71   -0.22
#  39   -0.13   -0.11    0.01    0.12   -0.03    0.00    0.00      -0.16    0.99   -0.26
#  40   -0.14   -0.04    0.00    0.06   -0.01    0.00    0.00      -0.12    1.63   -0.27
#  41   -0.18   -0.03    0.00    0.10   -0.01    0.00    0.00      -0.11    2.90   -0.28
#  42   -0.21   -0.06    0.00    0.12   -0.02    0.00    0.00      -0.16    2.00   -0.28
#  43   -0.23   -0.17    0.02    0.27   -0.06    0.00    0.00      -0.16    1.37   -0.28
#  44   -0.09   -0.22    0.02    0.35   -0.07    0.00    0.00      -0.01    1.34   -0.28
#  45   -0.11   -0.20    0.02    0.42   -0.07    0.00    0.00       0.06    1.78   -0.28
#  46   -6.67   -1.19    1.75    2.62   -0.13    0.00    0.00      -3.63    4.49   -0.23
#  47   -4.58   -0.99    0.70    1.23   -0.17    0.00    0.00      -3.81    1.97   -0.28
#  48   -2.70   -0.49    0.17    0.27   -0.10    0.00    0.00      -2.85    0.76   -0.28
#  49   -2.30   -0.16    0.01    0.57   -0.05    0.00    0.00      -1.93    3.30   -0.28

@<TRIPOS>MOLECULE
          T526787        94
   49    51     0     0     0



@<TRIPOS>ATOM
      1 O1          4.7791    -3.2117    93.8559 O.3        1          -0.5449
      2 C1          4.2520    -4.4072    94.4349 C.3        1           0.1365
      3 C2          3.6847    -5.3016    93.3306 C.3        1          -0.0431
      4 N1          4.5728    -5.2589    92.1614 N.4        1          -0.5039
      5 H1          4.6400    -4.3102    91.8244 H          1           0.4267
      6 H2          5.4899    -5.5884    92.4234 H          1           0.4326
      7 C3          4.0283    -6.1177    91.1013 C.3        1           0.0569
      8 C4          4.9394    -6.0739    89.9016 C.ar       1          -0.2007
      9 C5          6.3067    -6.1824    90.0676 C.ar       1          -0.0511
     10 C6          7.1431    -6.1419    88.9676 C.ar       1          -0.1510
     11 C7          6.6138    -5.9931    87.6987 C.ar       1          -0.0410
     12 C8          5.2474    -5.8846    87.5275 C.ar       1          -0.2050
     13 C9          4.4055    -5.9303    88.6294 C.ar       1           0.1554
     14 O2          3.0605    -5.8295    88.4631 O.3        1          -0.3208
     15 C10         2.4295    -6.8289    87.6600 C.3        1           0.1039
     16 C11         1.0162    -7.0398    88.1389 C.ar       1          -0.1097
     17 C12         0.7511    -7.9799    89.1172 C.ar       1          -0.0980
     18 C13        -0.5452    -8.1732    89.5565 C.ar       1          -0.1212
     19 C14        -1.5763    -7.4263    89.0181 C.ar       1          -0.1010
     20 C15        -1.3109    -6.4854    88.0406 C.ar       1          -0.1193
     21 C16        -0.0140    -6.2891    87.6043 C.ar       1          -0.0940
     22 C17         5.3504    -5.1404    95.1606 C.ar       1          -0.1352
     23 C18         6.6313    -4.6202    95.1828 C.ar       1          -0.0920
     24 C19         7.6391    -5.2920    95.8486 C.ar       1          -0.1030
     25 C20         7.3669    -6.4845    96.4927 C.ar       1          -0.0723
     26 C21         6.0858    -7.0053    96.4708 C.ar       1          -0.0881
     27 Br1         5.7128    -8.6365    97.3516 Br         1          -0.0275
     28 C22         5.0762    -6.3298    95.8086 C.ar       1          -0.0748
     29 H3          5.4900    -3.3637    93.2185 H          1           0.3885
     30 H4          3.4596    -4.1514    95.1383 H          1           0.1335
     31 H5          3.6121    -6.3264    93.6948 H          1           0.1373
     32 H6          2.6941    -4.9454    93.0477 H          1           0.1454
     33 H7          3.9558    -7.1426    91.4653 H          1           0.1378
     34 H8          3.0377    -5.7617    90.8183 H          1           0.1376
     35 H9          6.7226    -6.2987    91.0576 H          1           0.1400
     36 H10         8.2117    -6.2261    89.0995 H          1           0.1386
     37 H11         7.2692    -5.9612    86.8410 H          1           0.1391
     38 H12         4.8346    -5.7684    86.5363 H          1           0.1403
     39 H13         2.4158    -6.5039    86.6197 H          1           0.0800
     40 H14         2.9840    -7.7639    87.7413 H          1           0.0797
     41 H15         1.5564    -8.5635    89.5377 H          1           0.1241
     42 H16        -0.7526    -8.9082    90.3203 H          1           0.1289
     43 H17        -2.5892    -7.5778    89.3609 H          1           0.1290
     44 H18        -2.1165    -5.9021    87.6197 H          1           0.1294
     45 H19         0.1938    -5.5515    86.8433 H          1           0.1249
     46 H20         6.8445    -3.6887    94.6795 H          1           0.1297
     47 H21         8.6396    -4.8855    95.8655 H          1           0.1417
     48 H22         8.1545    -7.0096    97.0126 H          1           0.1422
     49 H23         4.0747    -6.7338    95.7951 H          1           0.1379
@<TRIPOS>BOND
     1    1    2 1
     2    1   29 1
     3    2    3 1
     4    2   22 1
     5    2   30 1
     6    3    4 1
     7    3   31 1
     8    3   32 1
     9    4    5 1
    10    4    6 1
    11    4    7 1
    12    7    8 1
    13    7   33 1
    14    7   34 1
    15    8   13 ar
    16    8    9 ar
    17    9   10 ar
    18    9   35 1
    19   10   11 ar
    20   10   36 1
    21   11   12 ar
    22   11   37 1
    23   12   13 ar
    24   12   38 1
    25   13   14 1
    26   14   15 1
    27   15   16 1
    28   15   39 1
    29   15   40 1
    30   16   21 ar
    31   16   17 ar
    32   17   18 ar
    33   17   41 1
    34   18   19 ar
    35   18   42 1
    36   19   20 ar
    37   19   43 1
    38   20   21 ar
    39   20   44 1
    40   21   45 1
    41   22   28 ar
    42   22   23 ar
    43   23   24 ar
    44   23   46 1
    45   24   25 ar
    46   24   47 1
    47   25   26 ar
    48   25   48 1
    49   26   27 1
    50   26   28 ar
    51   28   49 1
##########                 Name:              T540261
##########          Protonation:                   47
##########               SMILES:   Cc1[nH+]/c(=N/c2cc(ccc2)OC)/[nH]c(c1)N[C@H]3CC[NH+](CC3)Cc4ccccc4
##########            Long Name:   din-1-ium-4-yl)-2-(3-methoxyphenyl)imino-4-methyl-1H-pyrimidin-3-ium-6-amine
##########          FlexRecCode: 1
##########               Number:                  287
##########   Ligand Source File: /raidb/db2/rgc/tcams/tcams-0001984.db2.gz
##########           GlobalRank: 319
##########                 Rank:                    1
##########               Setnum:                  103
##########             Matchnum:                 3086
##########                Cloud:                    1
##########        Electrostatic:           -41.725243
##########        Van der Waals:           -24.799116
##########  Ligand Polar Desolv:             5.508130
########## Ligand Apolar Desolv:            -3.965974
##########      Internal Energy:             0.000000
##########      Receptor Energy: 0.0
########## Receptor Desolvation:             0.000000
########## Receptor Hydrophobic:             0.000000
##########         Total Energy: -64.98
##########        Ligand Charge:             2.000000
##########            Arbitrary:    +999.9990
##########     heavy atom count:   30
##########           pose count:    1
##########        Ligand Energy:             0.000000
# num electro vdwattr vdwrepu polsolv apolsol rdesolv rhydroe totalscore fullpol fullapo
#   1   -0.31   -1.42    0.58    0.12    0.01    0.00    0.00      -1.02    0.28    0.03
#   2    3.63   -1.02    0.06   -2.02    0.36    0.00    0.00       1.02   -5.15    0.93
#   3   -2.66   -1.19    0.10    0.58   -0.12    0.00    0.00      -3.29    1.47   -0.31
#   4    2.05   -1.14    0.09   -1.48   -0.17    0.00    0.00      -0.65   -3.98   -0.47
#   5   -2.67   -1.28    0.16    1.40   -0.22    0.00    0.00      -2.62    3.75   -0.58
#   6    7.00   -2.23    0.72   -2.53   -0.18    0.00    0.00       2.78   -5.14   -0.37
#   7    1.80   -2.58    0.92   -0.35   -0.24    0.00    0.00      -0.45   -0.67   -0.47
#   8    4.78   -2.15    0.63   -2.33   -0.19    0.00    0.00       0.74   -5.14   -0.42
#   9   11.29   -1.17    0.08   -6.36    0.83    0.00    0.00       4.67  -15.73    2.05
#  10  -11.83   -0.74    0.02    5.59   -1.32    0.00    0.00      -8.28   19.50   -4.62
#  11   11.54   -0.57    0.02   -4.69    0.20    0.00    0.00       6.50  -22.78    0.95
#  12   -7.44   -0.45    0.01    4.11   -0.36    0.00    0.00      -4.13   23.04   -2.03
#  13    7.41   -0.35    0.01   -4.06    0.18    0.00    0.00       3.20  -28.20    1.26
#  14   -1.94   -0.32    0.02    0.71   -0.04    0.00    0.00      -1.57    4.34   -0.25
#  15    4.72   -0.86    0.24   -2.08   -0.06    0.00    0.00       1.97   -7.91   -0.23
#  16    0.31   -1.62    1.18   -0.02   -0.11    0.00    0.00      -0.27   -0.07   -0.38
#  17    7.63   -0.45    0.03   -3.28    0.05    0.00    0.00       3.98  -17.22    0.27
#  18   -8.55   -0.01    0.00    2.50    0.06    0.00    0.00      -5.99   21.03    0.54
#  19   -0.52   -0.21    0.00    0.39   -0.05    0.00    0.00      -0.38    2.98   -0.36
#  20    1.90   -0.69    0.05   -0.85   -0.07    0.00    0.00       0.34   -3.76   -0.33
#  21    0.36   -0.91    0.11   -0.73   -0.11    0.00    0.00      -1.28   -2.94   -0.45
#  22    0.48   -1.78    0.45   -1.59   -0.18    0.00    0.00      -2.62   -4.23   -0.47
#  23    1.23   -2.44    0.94   -1.68   -0.21    0.00    0.00      -2.16   -3.70   -0.47
#  24    3.13   -1.90    0.42   -1.81   -0.20    0.00    0.00      -0.36   -4.24   -0.47
#  25    2.26   -1.06    0.11   -0.84   -0.12    0.00    0.00       0.36   -2.53   -0.36
#  26    0.29   -0.23    0.01   -0.16   -0.05    0.00    0.00      -0.15   -1.10   -0.34
#  27    1.61   -0.17    0.00   -0.66   -0.02    0.00    0.00       0.75   -6.14   -0.23
#  28    3.74   -0.48    0.02   -2.16   -0.08    0.00    0.00       1.03  -11.82   -0.46
#  29   -6.18   -0.69    0.03    2.99   -0.20    0.00    0.00      -4.06   11.08   -0.75
#  30    3.49   -0.84    0.23   -1.85   -0.07    0.00    0.00       0.96   -5.58   -0.21
#  31   12.22   -0.84    0.04   -5.83    0.31    0.00    0.00       5.89  -18.33    0.97
#  32  -12.71   -0.02    0.00    3.65    0.15    0.00    0.00      -8.93   14.46    0.58
#  33   -0.73   -0.26    0.02    0.47   -0.06    0.00    0.00      -0.55    1.93   -0.26
#  34   -0.95   -1.32    2.75    0.31   -0.08    0.00    0.00       0.72    1.01   -0.26
#  35   -1.99   -0.52    0.21    0.51   -0.10    0.00    0.00      -1.90    1.41   -0.28
#  36   -1.10   -0.32    0.06    0.21   -0.08    0.00    0.00      -1.24    0.73   -0.28
#  37   -4.64   -0.51    0.10    2.90   -0.13    0.00    0.00      -2.29    6.16   -0.28
#  38   -5.21   -0.70    0.18    3.63   -0.17    0.00    0.00      -2.28    6.09   -0.28
#  39   -3.25   -1.03    1.20    1.33   -0.10    0.00    0.00      -1.85    2.97   -0.22
#  40   -8.82   -0.01    0.00    1.74    0.03    0.00    0.00      -7.06   16.23    0.28
#  41   -2.47    0.00    0.00    1.06    0.02    0.00    0.00      -1.40   23.26    0.47
#  42   -2.86   -0.12    0.01    0.41   -0.03    0.00    0.00      -2.59    3.74   -0.23
#  43   -1.73   -0.13    0.01    0.72   -0.04    0.00    0.00      -1.17    4.92   -0.28
#  44   -4.89   -0.59    0.41    1.81   -0.08    0.00    0.00      -3.35    5.97   -0.28
#  45   -5.32   -0.77    0.64    2.94   -0.09    0.00    0.00      -2.60    8.93   -0.27
#  46   -6.86   -1.27    3.45    2.60   -0.09    0.00    0.00      -2.17    8.08   -0.28
#  47   -1.02   -0.04    0.00    0.34   -0.01    0.00    0.00      -0.73    9.33   -0.28
#  48   -1.22   -0.04    0.00    0.34   -0.01    0.00    0.00      -0.94    7.91   -0.27
#  49   -0.39   -0.10    0.00    0.58   -0.03    0.00    0.00       0.06    5.92   -0.28
#  50   -0.50   -0.36    0.07    0.51   -0.09    0.00    0.00      -0.37    1.52   -0.28
#  51   -2.27   -0.49    0.14    0.31   -0.12    0.00    0.00      -2.42    0.75   -0.28
#  52   -5.05   -0.46    0.09    0.97   -0.12    0.00    0.00      -4.56    2.28   -0.28
#  53   -3.23   -0.17    0.01    1.44   -0.05    0.00    0.00      -2.00    7.91   -0.28
#  54   -1.18   -0.04    0.00    0.35   -0.01    0.00    0.00      -0.88    9.65   -0.22
#  55   -2.71   -0.13    0.01    0.71   -0.03    0.00    0.00      -2.15    4.95   -0.19
#  56   -0.76   -0.07    0.00    0.31   -0.02    0.00    0.00      -0.53    4.91   -0.28
#  57   -0.91   -0.03    0.00    0.15   -0.01    0.00    0.00      -0.80    4.49   -0.28
#  58   -1.09   -0.07    0.00    0.93   -0.02    0.00    0.00      -0.25   11.94   -0.28
#  59   -3.89   -0.32    0.06    1.21   -0.08    0.00    0.00      -3.03    4.07   -0.28
#  60   -1.99   -0.19    0.01    0.56   -0.05    0.00    0.00      -1.66    3.02   -0.28
#  61   -2.73   -0.59    0.98    1.47   -0.07    0.00    0.00      -0.95    5.79   -0.28

@<TRIPOS>MOLECULE
          T540261        47
   61    64     0     0     0



@<TRIPOS>ATOM
      1 C1          8.4497    -8.6321    96.9988 C.3        1           0.0217
      2 O1          7.0294    -8.5040    96.9078 O.3        1          -0.3066
      3 C2          6.5439    -7.3098    96.4775 C.ar       1           0.1623
      4 C3          5.1773    -7.1165    96.3718 C.ar       1          -0.1363
      5 C4          4.6828    -5.8876    95.9290 C.ar       1           0.1150
      6 C5          5.5724    -4.8615    95.5959 C.ar       1          -0.2159
      7 C6          6.9318    -5.0666    95.7055 C.ar       1          -0.0559
      8 C7          7.4190    -6.2826    96.1497 C.ar       1          -0.2051
      9 N1          3.3357    -5.6890    95.8215 N.2        1          -0.4881
     10 C8          2.7129    -5.9706    94.6861 C.2        1           0.5626
     11 N2          3.4024    -6.5835    93.6668 N.pl3      1          -0.6347
     12 C9          2.7589    -6.8741    92.4958 C.2        1           0.5548
     13 N3          3.4269    -7.4857    91.4660 N.pl3      1          -0.6812
     14 C10         4.8642    -7.2629    91.2906 C.3        1           0.1042
     15 C11         5.0887    -6.0652    90.3637 C.3        1          -0.1697
     16 C12         6.5909    -5.8795    90.1403 C.3        1          -0.0086
     17 N4          7.1538    -7.0878    89.5249 N.4        1          -0.3834
     18 H1          8.1354    -6.9433    89.3414 H          1           0.4281
     19 C13         6.4572    -7.3597    88.2605 C.3        1           0.0455
     20 C14         6.6345    -6.1895    87.3274 C.ar       1          -0.1704
     21 C15         5.6517    -5.8870    86.4037 C.ar       1          -0.0920
     22 C16         5.8144    -4.8137    85.5479 C.ar       1          -0.1096
     23 C17         6.9598    -4.0427    85.6162 C.ar       1          -0.0776
     24 C18         7.9422    -4.3448    86.5405 C.ar       1          -0.1115
     25 C19         7.7775    -5.4156    87.3992 C.ar       1          -0.1004
     26 C20         6.9909    -8.2357    90.4252 C.3        1          -0.0197
     27 C21         5.5025    -8.5026    90.6585 C.3        1          -0.1500
     28 C22         1.4207    -6.5405    92.3677 C.2        1          -0.3403
     29 C23         0.7710    -5.9221    93.4287 C.2        1           0.3468
     30 C24        -0.6850    -5.5538    93.3040 C.3        1          -0.1574
     31 N5          1.4205    -5.6604    94.5469 N.pl3      1          -0.5398
     32 H2          0.9521    -5.2315    95.2802 H          1           0.4642
     33 H3          8.7024    -9.6312    97.3538 H          1           0.0604
     34 H4          8.8926    -8.4730    96.0156 H          1           0.0646
     35 H5          8.8375    -7.8897    97.6965 H          1           0.1131
     36 H6          4.4957    -7.9134    96.6303 H          1           0.1459
     37 H7          5.1954    -3.9094    95.2527 H          1           0.1216
     38 H8          7.6183    -4.2736    95.4478 H          1           0.1360
     39 H9          8.4845    -6.4354    96.2375 H          1           0.1418
     40 H10         4.3395    -6.8081    93.7775 H          1           0.4449
     41 H11         2.9477    -8.0655    90.8537 H          1           0.4367
     42 H12         5.3248    -7.0682    92.2593 H          1           0.1193
     43 H13         4.5978    -6.2469    89.4078 H          1           0.1148
     44 H14         4.6747    -5.1670    90.8220 H          1           0.1228
     45 H15         6.7569    -5.0267    89.4822 H          1           0.1284
     46 H16         7.0803    -5.6988    91.0974 H          1           0.1455
     47 H17         6.8735    -8.2566    87.8019 H          1           0.1364
     48 H18         5.3955    -7.5109    88.4559 H          1           0.1417
     49 H19         4.7568    -6.4893    86.3505 H          1           0.1319
     50 H20         5.0467    -4.5777    84.8257 H          1           0.1393
     51 H21         7.0872    -3.2046    84.9471 H          1           0.1394
     52 H22         8.8373    -3.7427    86.5936 H          1           0.1385
     53 H23         8.5434    -5.6493    88.1239 H          1           0.1291
     54 H24         7.4510    -9.1163    89.9767 H          1           0.1248
     55 H25         7.4743    -8.0205    91.3782 H          1           0.1503
     56 H26         5.3855    -9.3545    91.3283 H          1           0.1231
     57 H27         5.0170    -8.7174    89.7065 H          1           0.1308
     58 H28         0.8885    -6.7584    91.4535 H          1           0.1964
     59 H29        -1.0206    -5.0817    94.2273 H          1           0.1334
     60 H30        -0.8144    -4.8602    92.4733 H          1           0.1118
     61 H31        -1.2729    -6.4534    93.1212 H          1           0.1265
@<TRIPOS>BOND
     1    1    2 1
     2    1   33 1
     3    1   34 1
     4    1   35 1
     5    2    3 1
     6    3    8 ar
     7    3    4 ar
     8    4    5 ar
     9    4   36 1
    10    5    6 ar
    11    5    9 1
    12    6    7 ar
    13    6   37 1
    14    7    8 ar
    15    7   38 1
    16    8   39 1
    17    9   10 2
    18   10   31 1
    19   10   11 1
    20   11   12 1
    21   11   40 1
    22   12   13 1
    23   12   28 2
    24   13   14 1
    25   13   41 1
    26   14   27 1
    27   14   15 1
    28   14   42 1
    29   15   16 1
    30   15   43 1
    31   15   44 1
    32   16   17 1
    33   16   45 1
    34   16   46 1
    35   17   18 1
    36   17   19 1
    37   17   26 1
    38   19   20 1
    39   19   47 1
    40   19   48 1
    41   20   25 ar
    42   20   21 ar
    43   21   22 ar
    44   21   49 1
    45   22   23 ar
    46   22   50 1
    47   23   24 ar
    48   23   51 1
    49   24   25 ar
    50   24   52 1
    51   25   53 1
    52   26   27 1
    53   26   54 1
    54   26   55 1
    55   27   56 1
    56   27   57 1
    57   28   29 1
    58   28   58 1
    59   29   30 1
    60   29   31 2
    61   30   59 1
    62   30   60 1
    63   30   61 1
    64   31   32 1
##########                 Name:              T538441
##########          Protonation:                   97
##########               SMILES:   COc1ccc(cc1)C[NH+]2CC[C@@H](CC2)C[NH2+]CCc3c(cccc3)Oc4ccccc4
##########            Long Name:   phenyl)methyl]piperidin-1-ium-4-yl]methyl-[2-(2-phenoxyphenyl)ethyl]ammonium
##########          FlexRecCode: 1
##########               Number:                  123
##########   Ligand Source File: /raidb/db2/rgc/tcams/tcams-0001769.db2.gz
##########           GlobalRank: 320
##########                 Rank:                    1
##########               Setnum:                   68
##########             Matchnum:                 1292
##########                Cloud:                    1
##########        Electrostatic:           -51.301586
##########        Van der Waals:           -22.710138
##########  Ligand Polar Desolv:            12.770990
########## Ligand Apolar Desolv:            -3.731094
##########      Internal Energy:             0.000000
##########      Receptor Energy: 0.0
########## Receptor Desolvation:             0.000000
########## Receptor Hydrophobic:             0.000000
##########         Total Energy: -64.97
##########        Ligand Charge:             2.000000
##########            Arbitrary:    +999.9990
##########     heavy atom count:   32
##########           pose count:    1
##########        Ligand Energy:             0.000000
# num electro vdwattr vdwrepu polsolv apolsol rdesolv rhydroe totalscore fullpol fullapo
#   1    0.01   -0.16    0.01    0.03    0.00    0.00    0.00      -0.10    0.37    0.03
#   2   -0.11   -0.23    0.01   -0.61    0.10    0.00    0.00      -0.84   -5.47    0.93
#   3   -0.05   -0.21    0.00    0.05   -0.03    0.00    0.00      -0.23    0.63   -0.31
#   4    0.21   -0.27    0.01   -0.61   -0.04    0.00    0.00      -0.71   -5.88   -0.42
#   5    0.17   -0.21    0.01   -0.09   -0.03    0.00    0.00      -0.15   -1.08   -0.36
#   6    0.57   -0.18    0.00   -0.31   -0.02    0.00    0.00       0.05   -4.60   -0.33
#   7   -0.24   -0.14    0.00    0.20   -0.03    0.00    0.00      -0.20    2.37   -0.30
#   8    4.57   -0.35    0.01   -2.99    0.08    0.00    0.00       1.32  -16.94    0.43
#   9   -4.66   -0.01    0.00    2.63    0.07    0.00    0.00      -1.97   20.29    0.56
#  10    0.21   -0.45    0.03   -0.18   -0.09    0.00    0.00      -0.47   -0.74   -0.38
#  11    3.02   -0.56    0.07   -1.72   -0.05    0.00    0.00       0.76   -7.18   -0.19
#  12    3.12   -0.59    0.08   -1.22   -0.03    0.00    0.00       1.37   -5.23   -0.15
#  13    0.14   -0.50    0.07   -0.02   -0.08    0.00    0.00      -0.38   -0.10   -0.37
#  14   20.02   -2.42    4.14   -6.94    0.21    0.00    0.00      15.01  -24.43    0.73
#  15  -15.08   -0.03    0.00    6.42    0.15    0.00    0.00      -8.54   23.78    0.57
#  16  -26.99   -0.33    0.32    8.60    0.16    0.00    0.00     -18.25   25.19    0.46
#  17    0.20   -0.65    0.18    0.29   -0.09    0.00    0.00      -0.08    1.21   -0.40
#  18    2.91   -0.91    0.34   -1.22   -0.07    0.00    0.00       1.05   -3.98   -0.23
#  19    2.90   -0.81    0.04   -0.65   -0.10    0.00    0.00       1.37   -2.27   -0.36
#  20    1.68   -0.93    0.04   -0.58   -0.16    0.00    0.00       0.06   -1.71   -0.46
#  21    2.96   -1.26    0.10   -1.58   -0.20    0.00    0.00       0.02   -3.69   -0.47
#  22    0.73   -2.38    0.90   -1.17   -0.23    0.00    0.00      -2.14   -2.39   -0.47
#  23    0.86   -2.90    1.80   -1.72   -0.18    0.00    0.00      -2.14   -4.08   -0.43
#  24   -1.39   -1.17    0.20    0.72   -0.10    0.00    0.00      -1.75    2.21   -0.31
#  25    2.53   -0.87    0.08   -1.63    0.14    0.00    0.00       0.24   -5.14    0.43
#  26   -0.72   -1.26    0.11    0.59   -0.07    0.00    0.00      -1.34    1.58   -0.18
#  27    1.05   -1.46    0.22   -0.85   -0.17    0.00    0.00      -1.21   -2.24   -0.46
#  28    1.19   -1.86    0.63   -0.99   -0.22    0.00    0.00      -1.25   -2.12   -0.47
#  29    1.86   -2.31    0.55   -1.27   -0.27    0.00    0.00      -1.43   -2.24   -0.47
#  30    1.86   -2.29    0.36   -1.17   -0.27    0.00    0.00      -1.51   -2.04   -0.47
#  31    1.91   -1.63    0.22   -1.19   -0.22    0.00    0.00      -0.91   -2.45   -0.46
#  32    2.07   -0.24    0.01   -1.37   -0.03    0.00    0.00       0.43   -9.04   -0.19
#  33    0.07   -0.40    0.03   -0.08   -0.09    0.00    0.00      -0.47   -0.40   -0.42
#  34    0.09   -0.22    0.00   -0.12   -0.04    0.00    0.00      -0.30   -1.50   -0.45
#  35    0.14   -0.19    0.00   -0.35   -0.03    0.00    0.00      -0.43   -4.85   -0.46
#  36    0.07   -0.05    0.00    0.05   -0.01    0.00    0.00       0.07    1.14   -0.28
#  37    0.00   -0.02    0.00    0.04   -0.01    0.00    0.00       0.01    1.54   -0.27
#  38    0.04   -0.08    0.01    0.10   -0.02    0.00    0.00       0.05    1.27   -0.27
#  39    0.04   -0.08    0.00    0.22   -0.02    0.00    0.00       0.16    2.79   -0.22
#  40   -0.53   -0.04    0.00    0.35   -0.01    0.00    0.00      -0.23    8.27   -0.21
#  41   -0.38   -0.05    0.00    0.46   -0.02    0.00    0.00       0.01    8.00   -0.28
#  42   -0.98   -0.03    0.00    0.32    0.00    0.00    0.00      -0.69    9.51   -0.15
#  43   -1.86   -0.11    0.00    0.36   -0.02    0.00    0.00      -1.62    3.36   -0.22
#  44   -3.50   -0.24    0.04    1.58   -0.06    0.00    0.00      -2.19    7.05   -0.28
#  45   -1.44   -0.08    0.00    0.46   -0.01    0.00    0.00      -1.08    5.07   -0.16
#  46   -3.34   -0.40    0.14    1.30   -0.08    0.00    0.00      -2.38    4.46   -0.28
#  47   -4.08   -0.44    0.16    1.95   -0.08    0.00    0.00      -2.48    7.11   -0.28
#  48   -2.92   -0.12    0.01    0.95   -0.03    0.00    0.00      -2.10    8.52   -0.28
#  49   -2.18   -0.06    0.00    0.35   -0.02    0.00    0.00      -1.90    6.43   -0.28
#  50   -3.48   -0.14    0.01    0.95   -0.04    0.00    0.00      -2.69    7.41   -0.28
#  51   -2.21   -0.10    0.00    0.43   -0.03    0.00    0.00      -1.90    4.64   -0.28
#  52   -2.99   -0.28    0.05    0.91   -0.07    0.00    0.00      -2.37    3.64   -0.26
#  53   -4.48   -0.71    1.27    1.82   -0.08    0.00    0.00      -2.17    6.57   -0.28
#  54   -3.74   -0.20    0.01    1.37   -0.06    0.00    0.00      -2.62    6.66   -0.28
#  55   -3.52   -0.29    0.02    0.83   -0.10    0.00    0.00      -3.06    2.28   -0.28
#  56   -1.67   -0.96    1.06    0.48   -0.14    0.00    0.00      -1.23    0.97   -0.28
#  57    0.29   -1.50    2.32    0.40   -0.10    0.00    0.00       1.41    0.90   -0.23
#  58   -0.63   -0.24    0.02    0.98   -0.07    0.00    0.00       0.05    4.07   -0.28
#  59   -1.30   -0.32    0.06    0.92   -0.10    0.00    0.00      -0.73    2.71   -0.28
#  60   -3.06   -0.69    0.31    0.95   -0.15    0.00    0.00      -2.64    1.81   -0.28
#  61   -2.81   -0.72    0.19    1.07   -0.16    0.00    0.00      -2.44    1.82   -0.28
#  62   -2.29   -0.42    0.23    0.68   -0.09    0.00    0.00      -1.89    2.23   -0.28
#  63   -0.91   -0.03    0.00    0.24   -0.01    0.00    0.00      -0.72    6.50   -0.21
#  64   -0.92   -0.07    0.00    0.58   -0.02    0.00    0.00      -0.43    8.17   -0.24
#  65   -2.67   -0.16    0.01    1.30   -0.05    0.00    0.00      -1.57    7.46   -0.28
#  66   -1.22   -0.23    0.10    1.02   -0.04    0.00    0.00      -0.37    7.09   -0.28
#  67   -0.30   -0.07    0.00    0.44   -0.02    0.00    0.00       0.05    6.11   -0.28
#  68   -0.12   -0.04    0.00    0.03   -0.01    0.00    0.00      -0.13    0.90   -0.28

@<TRIPOS>MOLECULE
          T538441        97
   68    71     0     0     0



@<TRIPOS>ATOM
      1 C1         15.3743    -9.9376    88.8645 C.3        1           0.0199
      2 O1         14.2240   -10.4453    89.5433 O.3        1          -0.3032
      3 C2         13.0107   -10.0125    89.1100 C.ar       1           0.1753
      4 C3         11.8521   -10.4606    89.7274 C.ar       1          -0.2089
      5 C4         10.6200   -10.0189    89.2852 C.ar       1          -0.0559
      6 C5         10.5412    -9.1313    88.2281 C.ar       1          -0.2146
      7 C6          9.1960    -8.6513    87.7475 C.3        1           0.0426
      8 N1          9.2418    -7.1986    87.5341 N.4        1          -0.3830
      9 H1          9.9434    -6.9834    86.8416 H          1           0.4346
     10 C7          9.5815    -6.5308    88.7963 C.3        1          -0.0115
     11 C8          8.5641    -6.9172    89.8721 C.3        1          -0.1438
     12 C9          7.1655    -6.4838    89.4235 C.3        1          -0.1281
     13 C10         6.1331    -6.9375    90.4576 C.3        1          -0.0059
     14 N2          6.4409    -6.3264    91.7574 N.4        1          -0.5110
     15 H2          7.3620    -6.6124    92.0539 H          1           0.4320
     16 H3          6.4121    -5.3214    91.6720 H          1           0.4244
     17 C11         5.4497    -6.7620    92.7503 C.3        1          -0.0072
     18 C12         5.7703    -6.1255    94.1042 C.3        1          -0.0890
     19 C13         4.7534    -6.5723    95.1227 C.ar       1          -0.1418
     20 C14         3.5946    -5.8432    95.3087 C.ar       1          -0.0737
     21 C15         2.6615    -6.2526    96.2429 C.ar       1          -0.1444
     22 C16         2.8848    -7.3923    96.9936 C.ar       1          -0.0611
     23 C17         4.0416    -8.1248    96.8116 C.ar       1          -0.1871
     24 C18         4.9773    -7.7192    95.8705 C.ar       1           0.1325
     25 O2          6.1133    -8.4414    95.6852 O.3        1          -0.2647
     26 C19         6.9475    -8.6017    96.7458 C.ar       1           0.0644
     27 C20         7.4910    -9.8487    97.0204 C.ar       1          -0.1258
     28 C21         8.3387   -10.0089    98.0992 C.ar       1          -0.1044
     29 C22         8.6457    -8.9283    98.9053 C.ar       1          -0.1041
     30 C23         8.1056    -7.6846    98.6339 C.ar       1          -0.1012
     31 C24         7.2618    -7.5177    97.5530 C.ar       1          -0.1216
     32 C25         6.8519    -7.1277    88.0700 C.3        1          -0.1639
     33 C26         7.9320    -6.7332    87.0627 C.3        1          -0.0049
     34 C27        11.6946    -8.6828    87.6113 C.ar       1          -0.0485
     35 C28        12.9292    -9.1175    88.0530 C.ar       1          -0.1473
     36 H4         16.2748   -10.3619    89.3084 H          1           0.1151
     37 H5         15.3249   -10.2119    87.8107 H          1           0.0629
     38 H6         15.4007    -8.8519    88.9564 H          1           0.0640
     39 H7         11.9130   -11.1544    90.5528 H          1           0.1424
     40 H8          9.7177   -10.3672    89.7656 H          1           0.1284
     41 H9          8.9463    -9.1486    86.8101 H          1           0.1384
     42 H10         8.4384    -8.8849    88.4955 H          1           0.1317
     43 H11        10.5783    -6.8377    89.1126 H          1           0.1410
     44 H12         9.5638    -5.4506    88.6515 H          1           0.1355
     45 H13         8.5811    -7.9974    90.0179 H          1           0.1007
     46 H14         8.8170    -6.4189    90.8080 H          1           0.1244
     47 H15         7.1334    -5.3985    89.3283 H          1           0.1163
     48 H16         5.1380    -6.6284    90.1373 H          1           0.1382
     49 H17         6.1642    -8.0231    90.5500 H          1           0.1441
     50 H18         4.4546    -6.4529    92.4300 H          1           0.1351
     51 H19         5.4808    -7.8476    92.8427 H          1           0.1368
     52 H20         6.7653    -6.4345    94.4245 H          1           0.0988
     53 H21         5.7392    -5.0399    94.0119 H          1           0.0950
     54 H22         3.4180    -4.9526    94.7240 H          1           0.1328
     55 H23         1.7564    -5.6810    96.3870 H          1           0.1345
     56 H24         2.1543    -7.7097    97.7230 H          1           0.1356
     57 H25         4.2157    -9.0146    97.3984 H          1           0.1353
     58 H26         7.2512   -10.6932    96.3914 H          1           0.1265
     59 H27         8.7616   -10.9792    98.3136 H          1           0.1353
     60 H28         9.3084    -9.0557    99.7485 H          1           0.1359
     61 H29         8.3470    -6.8422    99.2650 H          1           0.1372
     62 H30         6.8440    -6.5451    97.3385 H          1           0.1317
     63 H31         6.8334    -8.2121    88.1784 H          1           0.1053
     64 H32         5.8807    -6.7798    87.7178 H          1           0.1086
     65 H33         7.9496    -5.6487    86.9548 H          1           0.1360
     66 H34         7.7102    -7.1897    86.0981 H          1           0.1411
     67 H35        11.6303    -7.9893    86.7859 H          1           0.1391
     68 H36        13.8300    -8.7642    87.5733 H          1           0.1473
@<TRIPOS>BOND
     1    1    2 1
     2    1   36 1
     3    1   37 1
     4    1   38 1
     5    2    3 1
     6    3   35 ar
     7    3    4 ar
     8    4    5 ar
     9    4   39 1
    10    5    6 ar
    11    5   40 1
    12    6    7 1
    13    6   34 ar
    14    7    8 1
    15    7   41 1
    16    7   42 1
    17    8    9 1
    18    8   33 1
    19    8   10 1
    20   10   11 1
    21   10   43 1
    22   10   44 1
    23   11   12 1
    24   11   45 1
    25   11   46 1
    26   12   13 1
    27   12   32 1
    28   12   47 1
    29   13   14 1
    30   13   48 1
    31   13   49 1
    32   14   15 1
    33   14   16 1
    34   14   17 1
    35   17   18 1
    36   17   50 1
    37   17   51 1
    38   18   19 1
    39   18   52 1
    40   18   53 1
    41   19   24 ar
    42   19   20 ar
    43   20   21 ar
    44   20   54 1
    45   21   22 ar
    46   21   55 1
    47   22   23 ar
    48   22   56 1
    49   23   24 ar
    50   23   57 1
    51   24   25 1
    52   25   26 1
    53   26   31 ar
    54   26   27 ar
    55   27   28 ar
    56   27   58 1
    57   28   29 ar
    58   28   59 1
    59   29   30 ar
    60   29   60 1
    61   30   31 ar
    62   30   61 1
    63   31   62 1
    64   32   33 1
    65   32   63 1
    66   32   64 1
    67   33   65 1
    68   33   66 1
    69   34   35 ar
    70   34   67 1
    71   35   68 1
##########                 Name:              T535625
##########          Protonation:                   56
##########               SMILES:   COc1ccc2c(n1)c(c(cn2)Cl)CC[NH+]3C[C@H]([C@@H](C3)O)CNCc4ccc5c(n4)NC(=O)CS5
##########            Long Name:   pyrrolidin-1-ium-3-yl]methylamino]methyl]-4H-pyrido[3,2-b][1,4]thiazin-3-one
##########          FlexRecCode: 1
##########               Number:                  310
##########   Ligand Source File: /raidb/db2/rgc/tcams/tcams-0001376.db2.gz
##########           GlobalRank: 321
##########                 Rank:                    1
##########               Setnum:                  285
##########             Matchnum:                 1375
##########                Cloud:                    1
##########        Electrostatic:           -46.048531
##########        Van der Waals:           -26.067760
##########  Ligand Polar Desolv:             6.546457
########## Ligand Apolar Desolv:             0.608426
##########      Internal Energy:             0.000000
##########      Receptor Energy: 0.0
########## Receptor Desolvation:             0.000000
########## Receptor Hydrophobic:             0.000000
##########         Total Energy: -64.96
##########        Ligand Charge:             1.000000
##########            Arbitrary:    +999.9990
##########     heavy atom count:   35
##########           pose count:    1
##########        Ligand Energy:             0.000000
# num electro vdwattr vdwrepu polsolv apolsol rdesolv rhydroe totalscore fullpol fullapo
#   1   -1.46   -2.33    0.89    0.17    0.02    0.00    0.00      -2.71    0.30    0.03
#   2    7.28   -3.46    4.98   -2.26    0.48    0.00    0.00       7.03   -4.21    0.90
#   3   -7.96   -1.96    0.52    1.85   -0.29    0.00    0.00      -7.84    4.22   -0.66
#   4    2.62   -1.85    0.36   -0.90   -0.22    0.00    0.00       0.00   -1.84   -0.46
#   5    0.00   -1.43    0.16   -0.18   -0.21    0.00    0.00      -1.65   -0.41   -0.48
#   6   -0.50   -1.23    0.16   -0.02   -0.24    0.00    0.00      -1.83   -0.05   -0.73
#   7    2.19   -1.24    0.12   -1.50    0.68    0.00    0.00       0.25   -4.39    1.99
#   8   -0.44   -1.48    0.38    0.40   -0.30    0.00    0.00      -1.43    1.30   -0.96
#   9    0.25   -1.05    0.23   -0.25   -0.07    0.00    0.00      -0.90   -1.05   -0.30
#  10    0.09   -1.49    0.69   -0.02   -0.16    0.00    0.00      -0.89   -0.13   -0.94
#  11    0.47   -0.88    0.12    0.04   -0.09    0.00    0.00      -0.34    0.17   -0.36
#  12    1.85   -0.44    0.04   -0.62   -0.05    0.00    0.00       0.78   -2.73   -0.20
#  13   -0.04   -0.84    0.24    0.18   -0.09    0.00    0.00      -0.56    0.70   -0.35
#  14   11.68   -1.22    0.49   -3.12    0.11    0.00    0.00       7.95  -11.59    0.42
#  15  -20.26   -0.10    0.01    4.90    0.18    0.00    0.00     -15.25   15.09    0.56
#  16    0.85   -0.37    0.03   -0.15   -0.07    0.00    0.00       0.29   -0.85   -0.38
#  17   -1.43   -0.44    0.04    0.45   -0.03    0.00    0.00      -1.42    2.17   -0.15
#  18   10.10   -2.09    1.31   -4.32    0.56    0.00    0.00       5.56  -13.18    1.71
#  19    2.21   -0.50    0.04   -0.60   -0.05    0.00    0.00       1.10   -2.49   -0.20
#  20   -0.82   -0.36    0.03    0.24   -0.07    0.00    0.00      -0.98    1.27   -0.37
#  21    7.76   -0.53    0.03   -2.57    0.55    0.00    0.00       5.24  -12.60    2.71
#  22   -0.36   -0.59    0.17    0.41   -0.10    0.00    0.00      -0.47    1.91   -0.45
#  23   -0.37   -0.58    0.06    0.38   -0.14    0.00    0.00      -0.66    1.87   -0.70
#  24    0.26   -0.30    0.01   -0.22   -0.05    0.00    0.00      -0.30   -1.78   -0.45
#  25    0.02   -0.24    0.01   -0.03   -0.04    0.00    0.00      -0.29   -0.29   -0.46
#  26    0.22   -0.39    0.03   -0.21   -0.04    0.00    0.00      -0.39   -1.52   -0.28
#  27    0.03   -0.38    0.01   -0.06   -0.07    0.00    0.00      -0.47   -0.64   -0.80
#  28    0.12   -0.36    0.02   -0.18   -0.03    0.00    0.00      -0.43   -0.82   -0.14
#  29   -0.85   -1.23    0.21    0.72   -0.22    0.00    0.00      -1.37    2.13   -0.65
#  30    0.96   -1.82    0.46   -0.04    0.18    0.00    0.00      -0.25   -0.09    0.42
#  31    3.18   -1.81    0.92   -1.12    0.49    0.00    0.00       1.67   -3.64    1.60
#  32   -0.75   -0.97    0.25    0.49   -0.45    0.00    0.00      -1.44    2.23   -2.06
#  33    1.33   -1.09    0.25   -1.14    0.48    0.00    0.00      -0.17   -4.55    1.92
#  34   -0.05   -0.58    0.08    0.18   -0.11    0.00    0.00      -0.48    0.72   -0.43
#  35   -1.97   -1.25    0.27    0.50   -0.22    0.00    0.00      -2.67    1.65   -0.73
#  36   12.31   -1.49    0.31   -2.74    0.93    0.00    0.00       9.32   -7.50    2.54
#  37   -3.90   -1.33    1.14    1.18   -0.18    0.00    0.00      -3.09    1.87   -0.28
#  38   -2.95   -1.00    0.88    0.83   -0.16    0.00    0.00      -2.39    1.45   -0.28
#  39   -2.15   -0.44    0.10    0.98   -0.12    0.00    0.00      -1.62    2.31   -0.28
#  40   -2.89   -0.48    0.12    0.99   -0.14    0.00    0.00      -2.41    1.98   -0.28
#  41   -2.05   -0.32    0.06    0.42   -0.08    0.00    0.00      -1.97    1.53   -0.28
#  42   -0.63   -0.34    0.08    0.60   -0.07    0.00    0.00      -0.36    2.33   -0.28
#  43   -1.44   -0.07    0.00    0.22   -0.01    0.00    0.00      -1.30    3.43   -0.23
#  44   -2.83   -0.17    0.02    0.49   -0.04    0.00    0.00      -2.51    3.37   -0.24
#  45   -3.59   -0.97    2.08    1.47   -0.09    0.00    0.00      -1.09    4.59   -0.28
#  46   -1.99   -0.15    0.02    0.61   -0.04    0.00    0.00      -1.55    4.34   -0.27
#  47   -1.75   -0.04    0.00    0.22   -0.01    0.00    0.00      -1.58    5.36   -0.26
#  48   -3.14   -0.12    0.01    0.59   -0.03    0.00    0.00      -2.69    5.20   -0.27
#  49   -0.77   -0.06    0.00    0.11   -0.01    0.00    0.00      -0.73    1.98   -0.24
#  50  -18.18   -0.09    0.01    3.77    0.47    0.00    0.00     -14.02    9.84    1.22
#  51   -3.99   -0.29    0.04    0.53   -0.07    0.00    0.00      -3.78    2.02   -0.27
#  52   -0.72   -0.06    0.00    0.15   -0.02    0.00    0.00      -0.64    2.37   -0.28
#  53   -0.50   -0.22    0.05    0.27   -0.04    0.00    0.00      -0.44    1.74   -0.28
#  54   -6.42   -0.01    0.00    0.89    0.08    0.00    0.00      -5.47    5.67    0.49
#  55   -0.24   -0.11    0.02    0.22   -0.03    0.00    0.00      -0.14    2.31   -0.28
#  56   -0.62   -0.75    1.39    0.23   -0.08    0.00    0.00       0.16    0.83   -0.28
#  57   -0.23   -0.04    0.00    0.11   -0.01    0.00    0.00      -0.17    3.17   -0.28
#  58   -0.13   -0.02    0.00    0.06   -0.01    0.00    0.00      -0.11    2.03   -0.28
#  59   -0.09   -0.07    0.00    0.08   -0.02    0.00    0.00      -0.09    1.29   -0.28
#  60   -0.14   -0.17    0.02    0.23   -0.05    0.00    0.00      -0.10    1.41   -0.28
#  61   -7.51   -0.06    0.01    0.87    0.19    0.00    0.00      -6.51    2.70    0.59
#  62   -3.70   -0.31    0.11    1.33   -0.07    0.00    0.00      -2.63    5.68   -0.28
#  63   -2.01   -0.07    0.00    0.39   -0.02    0.00    0.00      -1.71    5.49   -0.26

@<TRIPOS>MOLECULE
          T535625        56
   63    67     0     0     0



@<TRIPOS>ATOM
      1 C1          7.0140    -4.3401    95.4540 C.3        1           0.0382
      2 O1          7.3551    -5.1660    96.5692 O.3        1          -0.2920
      3 C2          7.3274    -6.5072    96.3731 C.ar       1           0.3737
      4 C3          7.6481    -7.3616    97.4360 C.ar       1          -0.1548
      5 C4          7.6248    -8.7116    97.2546 C.ar       1          -0.0002
      6 C5          7.2730    -9.2107    95.9826 C.ar       1           0.0527
      7 N1          7.2325   -10.5238    95.7453 N.ar       1          -0.4174
      8 C6          6.9061   -10.9936    94.5658 C.ar       1           0.1315
      9 C7          6.5868   -10.1465    93.5049 C.ar       1          -0.0518
     10 Cl1         6.1604   -10.8125    91.9595 Cl         1          -0.0312
     11 C8          6.6096    -8.7918    93.6830 C.ar       1          -0.0416
     12 C9          6.2680    -7.8571    92.5512 C.3        1          -0.0977
     13 C10         7.5394    -7.5122    91.7731 C.3        1           0.0019
     14 N2          7.2063    -6.6012    90.6700 N.4        1          -0.3906
     15 H1          7.1128    -5.6556    91.0093 H          1           0.4322
     16 C11         5.9567    -7.0371    89.9953 C.3        1          -0.0420
     17 C12         6.0273    -6.3952    88.5930 C.3        1           0.0893
     18 O2          5.3182    -5.1545    88.5788 O.3        1          -0.5438
     19 C13         7.5297    -6.1563    88.3368 C.3        1          -0.1041
     20 C14         7.9914    -6.9452    87.1098 C.3        1           0.0649
     21 N3          9.4512    -7.1036    87.1502 N.3        1          -0.6793
     22 C15         9.9314    -7.8580    85.9848 C.3        1           0.1115
     23 C16        11.4297    -8.0000    86.0609 C.ar       1           0.1604
     24 C17        12.0073    -9.2253    85.7911 C.ar       1          -0.1546
     25 C18        13.3890    -9.3480    85.8607 C.ar       1          -0.0132
     26 C19        14.1294    -8.2273    86.2001 C.ar       1          -0.1773
     27 S1         15.8885    -8.3102    86.2967 S.3        1          -0.0544
     28 C20        16.3869    -6.6181    85.8534 C.3        1          -0.1339
     29 C21        15.4856    -5.6473    86.5668 C.2        1           0.5316
     30 O3         15.9582    -4.5930    86.9355 O.2        1          -0.4972
     31 N4         14.2002    -5.8799    86.8161 N.am       1          -0.6441
     32 C22        13.4854    -7.0162    86.4654 C.ar       1           0.3716
     33 N5         12.1619    -6.9510    86.3782 N.ar       1          -0.4999
     34 C23         8.2421    -6.6718    89.6072 C.3        1           0.0021
     35 C24         6.9604    -8.2922    94.9520 C.ar       1           0.1409
     36 N6          6.9949    -6.9774    95.1904 N.ar       1          -0.5486
     37 H2          7.0757    -3.2917    95.7459 H          1           0.1058
     38 H3          7.7077    -4.5307    94.6350 H          1           0.0623
     39 H4          5.9984    -4.5679    95.1303 H          1           0.0547
     40 H5          7.9138    -6.9501    98.3986 H          1           0.1631
     41 H6          7.8697    -9.3831    98.0643 H          1           0.1674
     42 H7          6.8844   -12.0623    94.4118 H          1           0.1811
     43 H8          5.5536    -8.3399    91.8844 H          1           0.1113
     44 H9          5.8295    -6.9441    92.9538 H          1           0.1036
     45 H10         8.2539    -7.0296    92.4400 H          1           0.1327
     46 H11         7.9779    -8.4254    91.3705 H          1           0.1329
     47 H12         5.9273    -8.1237    89.9148 H          1           0.1402
     48 H13         5.0846    -6.6713    90.5373 H          1           0.1393
     49 H14         5.6173    -7.0735    87.8449 H          1           0.1021
     50 H15         5.6603    -4.4988    89.2018 H          1           0.3960
     51 H16         7.7259    -5.0931    88.1983 H          1           0.1327
     52 H17         7.5191    -7.9276    87.1108 H          1           0.0968
     53 H18         7.7091    -6.4073    86.2047 H          1           0.0441
     54 H19         9.9105    -6.2075    87.2152 H          1           0.3492
     55 H20         9.4727    -8.8468    85.9778 H          1           0.1003
     56 H21         9.6627    -7.3263    85.0720 H          1           0.0571
     57 H22        11.3938   -10.0750    85.5304 H          1           0.1502
     58 H23        13.8731   -10.2913    85.6553 H          1           0.1549
     59 H24        17.4198    -6.4494    86.1580 H          1           0.1588
     60 H25        16.2936    -6.4797    84.7762 H          1           0.1322
     61 H26        13.7144    -5.1868    87.2898 H          1           0.4184
     62 H27         9.0878    -6.0316    89.8574 H          1           0.1441
     63 H28         8.5720    -7.7010    89.4656 H          1           0.1361
@<TRIPOS>BOND
     1    1    2 1
     2    1   37 1
     3    1   38 1
     4    1   39 1
     5    2    3 1
     6    3   36 ar
     7    3    4 ar
     8    4    5 ar
     9    4   40 1
    10    5    6 ar
    11    5   41 1
    12    6   35 ar
    13    6    7 ar
    14    7    8 ar
    15    8    9 ar
    16    8   42 1
    17    9   10 1
    18    9   11 ar
    19   11   12 1
    20   11   35 ar
    21   12   13 1
    22   12   43 1
    23   12   44 1
    24   13   14 1
    25   13   45 1
    26   13   46 1
    27   14   15 1
    28   14   34 1
    29   14   16 1
    30   16   17 1
    31   16   47 1
    32   16   48 1
    33   17   18 1
    34   17   19 1
    35   17   49 1
    36   18   50 1
    37   19   20 1
    38   19   34 1
    39   19   51 1
    40   20   21 1
    41   20   52 1
    42   20   53 1
    43   21   22 1
    44   21   54 1
    45   22   23 1
    46   22   55 1
    47   22   56 1
    48   23   33 ar
    49   23   24 ar
    50   24   25 ar
    51   24   57 1
    52   25   26 ar
    53   25   58 1
    54   26   32 ar
    55   26   27 1
    56   27   28 1
    57   28   29 1
    58   28   59 1
    59   28   60 1
    60   29   30 2
    61   29   31 am
    62   31   32 1
    63   31   61 1
    64   32   33 ar
    65   34   62 1
    66   34   63 1
    67   35   36 ar
##########                 Name:              T526835
##########          Protonation:                   94
##########               SMILES:   c1cc(c(cc1/C=C\C(=O)NCCCCC[NH+]2CCCN(CC2)C(=O)Nc3cc(cc(c3)Cl)Cl)Cl)Cl
##########            Long Name:   4-dichlorophenyl)prop-2-enoyl]amino]pentyl]-1,4-diazepan-4-ium-1-carboxamide
##########          FlexRecCode: 1
##########               Number:                  130
##########   Ligand Source File: /raidb/db2/rgc/tcams/tcams-0000218.db2.gz
##########           GlobalRank: 322
##########                 Rank:                    1
##########               Setnum:                  126
##########             Matchnum:                  193
##########                Cloud:                    1
##########        Electrostatic:           -37.610004
##########        Van der Waals:           -31.100931
##########  Ligand Polar Desolv:             8.934847
########## Ligand Apolar Desolv:            -5.163185
##########      Internal Energy:             0.000000
##########      Receptor Energy: 0.0
########## Receptor Desolvation:             0.000000
########## Receptor Hydrophobic:             0.000000
##########         Total Energy: -64.94
##########        Ligand Charge:             1.000000
##########            Arbitrary:    +999.9990
##########     heavy atom count:   36
##########           pose count:    1
##########        Ligand Energy:             0.000000
# num electro vdwattr vdwrepu polsolv apolsol rdesolv rhydroe totalscore fullpol fullapo
#   1    1.01   -9.95   11.55   -0.31   -0.64    0.00    0.00       1.66   -0.48   -0.99
#   2    0.05   -2.07    0.46   -0.09   -0.16    0.00    0.00      -1.82   -0.17   -0.30
#   3    1.82   -1.54    0.18   -0.65   -0.22    0.00    0.00      -0.41   -1.34   -0.45
#   4   -1.50   -1.33    0.15    0.86   -0.25    0.00    0.00      -2.08    2.34   -0.67
#   5    5.23   -1.19    0.16   -3.46    0.54    0.00    0.00       1.28  -10.74    1.67
#   6   -7.97   -1.10    0.13    3.73   -0.68    0.00    0.00      -5.89   11.10   -2.03
#   7    6.02   -1.46    0.17   -2.84    0.13    0.00    0.00       2.03   -6.78    0.32
#   8   11.91   -0.76    0.03   -3.77    0.40    0.00    0.00       7.80  -13.72    1.44
#   9   -2.33   -0.64    0.03    0.68   -0.16    0.00    0.00      -2.41    2.01   -0.46
#  10    5.79   -1.20    0.20   -1.98   -0.11    0.00    0.00       2.70   -4.42   -0.24
#  11    0.39   -1.45    0.51   -0.13   -0.14    0.00    0.00      -0.83   -0.32   -0.36
#  12   14.31   -1.95    1.52   -3.42    0.05    0.00    0.00      10.52  -11.26    0.18
#  13  -24.83   -0.17    0.07    5.33    0.14    0.00    0.00     -19.47   16.87    0.44
#  14    0.59   -1.32    0.49   -0.03   -0.11    0.00    0.00      -0.38   -0.09   -0.35
#  15    3.60   -0.96    0.24   -1.15   -0.06    0.00    0.00       1.67   -3.99   -0.20
#  16    0.43   -0.92    0.23   -0.83   -0.06    0.00    0.00      -1.15   -2.88   -0.22
#  17    0.31   -0.38    0.03   -0.46   -0.04    0.00    0.00      -0.54   -2.30   -0.22
#  18   -0.19   -0.49    0.06    0.32   -0.09    0.00    0.00      -0.39    1.44   -0.42
#  19    0.90   -0.38    0.01   -1.49    0.38    0.00    0.00      -0.58   -9.20    2.33
#  20   -0.56   -0.53    0.02    1.07   -0.14    0.00    0.00      -0.15    4.50   -0.58
#  21    0.45   -0.85    0.06   -0.79    0.10    0.00    0.00      -1.03   -2.22    0.29
#  22    0.23   -0.54    0.03   -0.49   -0.10    0.00    0.00      -0.86   -2.25   -0.45
#  23    0.02   -0.45    0.03   -0.10   -0.09    0.00    0.00      -0.60   -0.52   -0.44
#  24    0.11   -0.48    0.03   -0.06   -0.06    0.00    0.00      -0.45   -0.32   -0.31
#  25    0.04   -0.36    0.01   -0.02   -0.04    0.00    0.00      -0.37   -0.13   -0.29
#  26    0.07   -0.49    0.02   -0.03   -0.07    0.00    0.00      -0.50   -0.16   -0.30
#  27    0.04   -2.76    1.35   -0.04   -0.27    0.00    0.00      -1.67   -0.13   -0.95
#  28    0.06   -0.58    0.04   -0.04   -0.07    0.00    0.00      -0.58   -0.16   -0.30
#  29    0.62   -1.30    0.08   -0.03   -0.25    0.00    0.00      -0.87   -0.10   -0.95
#  30    0.83   -0.77    0.10   -0.12   -0.11    0.00    0.00      -0.07   -0.48   -0.46
#  31    0.28   -0.77    0.08   -0.15   -0.12    0.00    0.00      -0.67   -0.57   -0.45
#  32    1.07   -0.43    0.04   -0.08   -0.08    0.00    0.00       0.51   -0.40   -0.39
#  33   -2.60   -0.51    0.05    0.56   -0.10    0.00    0.00      -2.60    2.32   -0.42
#  34    0.66   -1.45    0.20   -0.39   -0.15    0.00    0.00      -1.13   -1.00   -0.39
#  35    0.04   -1.66    0.37   -0.11   -0.15    0.00    0.00      -1.51   -0.21   -0.30
#  36    0.31   -4.13    0.99   -0.26   -0.59    0.00    0.00      -3.67   -0.43   -0.99
#  37    1.34   -2.14    0.86   -0.49   -0.24    0.00    0.00      -0.66   -0.93   -0.45
#  38   -2.30   -0.29    0.03    0.89   -0.09    0.00    0.00      -1.75    2.77   -0.28
#  39   -2.42   -0.02    0.00    1.56    0.07    0.00    0.00      -0.81    9.18    0.41
#  40   -1.94   -0.13    0.00    0.25   -0.02    0.00    0.00      -1.83    2.36   -0.20
#  41   -2.27   -0.30    0.04    0.55   -0.07    0.00    0.00      -2.05    2.15   -0.28
#  42   -4.51   -0.57    0.16    2.07   -0.13    0.00    0.00      -2.98    4.44   -0.28
#  43   -4.43   -0.61    0.53    1.96   -0.10    0.00    0.00      -2.65    4.84   -0.25
#  44   -3.35   -0.22    0.02    0.66   -0.05    0.00    0.00      -2.94    2.94   -0.24
#  45   -6.08   -1.23    2.30    2.72   -0.10    0.00    0.00      -2.39    6.06   -0.23
#  46   -2.04   -0.16    0.02    0.77   -0.04    0.00    0.00      -1.46    4.72   -0.26
#  47   -4.46   -1.16    1.42    1.67   -0.12    0.00    0.00      -2.65    3.90   -0.27
#  48   -3.59   -0.75    0.63    1.19   -0.07    0.00    0.00      -2.59    3.79   -0.23
#  49   -1.67   -0.10    0.00    0.37   -0.03    0.00    0.00      -1.43    3.82   -0.28
#  50   -0.30   -0.94    1.26    0.47   -0.11    0.00    0.00       0.39    1.25   -0.28
#  51   -0.28   -0.17    0.02    0.18   -0.04    0.00    0.00      -0.28    1.20   -0.28
#  52   -0.24   -0.04    0.00    0.09   -0.01    0.00    0.00      -0.20    2.08   -0.28
#  53   -0.18   -0.13    0.02    0.27   -0.04    0.00    0.00      -0.07    2.04   -0.28
#  54   -0.09   -0.41    0.18    0.05   -0.07    0.00    0.00      -0.34    0.20   -0.28
#  55   -0.12   -0.10    0.01    0.02   -0.03    0.00    0.00      -0.23    0.19   -0.28
#  56   -0.47    0.00    0.00    0.30    0.02    0.00    0.00      -0.15    7.48    0.56
#  57   -0.12   -0.19    0.04    0.64   -0.05    0.00    0.00       0.31    3.44   -0.28
#  58   -0.21   -0.09    0.01    0.31   -0.03    0.00    0.00      -0.01    2.80   -0.28
#  59   -0.16   -0.04    0.00    0.03   -0.01    0.00    0.00      -0.19    0.60   -0.25
#  60   -2.05   -0.16    0.01    0.13   -0.04    0.00    0.00      -2.10    0.91   -0.28
#  61   -0.53   -0.21    0.03    0.46   -0.07    0.00    0.00      -0.31    1.87   -0.28
#  62   -2.06   -0.09    0.00    0.20   -0.02    0.00    0.00      -1.96    2.48   -0.28
#  63   -2.51   -0.08    0.00    0.42   -0.02    0.00    0.00      -2.18    5.94   -0.26
#  64   -3.57   -0.32    0.14    1.16   -0.06    0.00    0.00      -2.66    5.03   -0.28
#  65   -1.88   -0.12    0.01    0.12   -0.03    0.00    0.00      -1.90    1.09   -0.24
#  66   -0.52   -0.29    0.03    0.30   -0.06    0.00    0.00      -0.54    1.13   -0.21
#  67   -1.83   -0.56    0.35    0.35   -0.14    0.00    0.00      -1.83    0.70   -0.28

@<TRIPOS>MOLECULE
          T526835        94
   67    69     0     0     0



@<TRIPOS>ATOM
      1 Cl1         9.0841    -7.9515    99.8588 Cl         1          -0.0392
      2 C1          8.4578    -9.0056    98.6298 C.ar       1          -0.0028
      3 C2          7.6140    -8.5057    97.6557 C.ar       1          -0.1324
      4 C3          7.1134    -9.3494    96.6730 C.ar       1           0.1741
      5 N1          6.2593    -8.8458    95.6854 N.am       1          -0.6758
      6 C4          5.4511    -7.8031    95.9610 C.2        1           0.7025
      7 O1          5.0369    -7.6373    97.0920 O.2        1          -0.5473
      8 N2          5.1022    -6.9440    94.9829 N.am       1          -0.6353
      9 C5          4.2181    -5.7829    95.2599 C.3        1           0.0944
     10 C6          4.4875    -4.4613    94.5806 C.3        1          -0.1570
     11 C7          3.8014    -4.4662    93.1990 C.3        1          -0.0104
     12 N3          4.4512    -5.3244    92.2773 N.4        1          -0.3663
     13 H1          5.4050    -5.0133    92.1698 H          1           0.4172
     14 C8          3.7775    -5.2052    90.9774 C.3        1          -0.0209
     15 C9          4.7121    -5.6996    89.8714 C.3        1          -0.1460
     16 C10         4.0106    -5.5756    88.5175 C.3        1          -0.1155
     17 C11         2.7359    -6.4217    88.5242 C.3        1          -0.1319
     18 C12         2.0343    -6.2977    87.1700 C.3        1           0.1182
     19 N4          0.8138    -7.1079    87.1765 N.am       1          -0.7308
     20 C13        -0.3531    -6.5653    87.5770 C.2        1           0.5381
     21 O2         -0.3929    -5.4024    87.9334 O.2        1          -0.5204
     22 C14        -1.5727    -7.3750    87.5832 C.2        1          -0.2159
     23 C15        -1.9104    -8.0768    88.6841 C.2        1          -0.0118
     24 C16        -1.1852    -7.8602    89.9460 C.ar       1          -0.0606
     25 C17        -0.5007    -8.9181    90.5534 C.ar       1          -0.0241
     26 C18         0.1774    -8.7074    91.7359 C.ar       1          -0.0388
     27 Cl2         1.0282   -10.0182    92.4919 Cl         1          -0.0531
     28 C19         0.1811    -7.4505    92.3219 C.ar       1          -0.0201
     29 Cl3         1.0369    -7.1937    93.8103 Cl         1          -0.0474
     30 C20        -0.4944    -6.3990    91.7249 C.ar       1          -0.1072
     31 C21        -1.1722    -6.5944    90.5404 C.ar       1          -0.0810
     32 C22         4.4656    -6.7389    92.6612 C.3        1          -0.0473
     33 C23         5.5935    -7.1225    93.5929 C.3        1           0.1145
     34 C24         7.4621   -10.6934    96.6715 C.ar       1          -0.1114
     35 C25         8.3063   -11.1883    97.6479 C.ar       1          -0.0049
     36 Cl4         8.7428   -12.8685    97.6467 Cl         1          -0.0411
     37 C26         8.8084   -10.3442    98.6228 C.ar       1          -0.1112
     38 H2          7.3439    -7.4601    97.6592 H          1           0.1442
     39 H3          6.2488    -9.2474    94.8025 H          1           0.4110
     40 H4          3.2010    -6.0795    95.0040 H          1           0.0924
     41 H5          4.2392    -5.6067    96.3354 H          1           0.0954
     42 H6          4.0850    -3.6494    95.1864 H          1           0.1283
     43 H7          5.5620    -4.3265    94.4552 H          1           0.0948
     44 H8          2.7688    -4.7941    93.3189 H          1           0.1287
     45 H9          3.8047    -3.4520    92.7997 H          1           0.1386
     46 H10         2.8695    -5.8081    90.9822 H          1           0.1346
     47 H11         3.5201    -4.1618    90.7960 H          1           0.1317
     48 H12         5.6202    -5.0969    89.8667 H          1           0.0870
     49 H13         4.9697    -6.7431    90.0530 H          1           0.0894
     50 H14         3.7530    -4.5321    88.3360 H          1           0.0797
     51 H15         4.6764    -5.9278    87.7297 H          1           0.0787
     52 H16         2.9934    -7.4652    88.7056 H          1           0.0738
     53 H17         2.0700    -6.0696    89.3120 H          1           0.0744
     54 H18         1.7767    -5.2542    86.9886 H          1           0.0696
     55 H19         2.7002    -6.6500    86.3822 H          1           0.0697
     56 H20         0.8455    -8.0349    86.8923 H          1           0.4012
     57 H21        -2.2019    -7.4103    86.7061 H          1           0.1386
     58 H22        -2.7132    -8.7979    88.6395 H          1           0.1472
     59 H23        -0.5035    -9.8973    90.0978 H          1           0.1300
     60 H24        -0.4869    -5.4228    92.1865 H          1           0.1443
     61 H25        -1.6949    -5.7722    90.0741 H          1           0.1400
     62 H26         3.5185    -6.9742    93.1466 H          1           0.1318
     63 H27         4.5442    -7.3411    91.7561 H          1           0.1470
     64 H28         6.4560    -6.4789    93.4198 H          1           0.1032
     65 H29         5.8707    -8.1639    93.4293 H          1           0.1344
     66 H30         7.0738   -11.3516    95.9084 H          1           0.1584
     67 H31         9.4717   -10.7317    99.3819 H          1           0.1508
@<TRIPOS>BOND
     1    1    2 1
     2    2   37 ar
     3    2    3 ar
     4    3    4 ar
     5    3   38 1
     6    4    5 1
     7    4   34 ar
     8    5    6 am
     9    5   39 1
    10    6    7 2
    11    6    8 am
    12    8   33 1
    13    8    9 1
    14    9   10 1
    15    9   40 1
    16    9   41 1
    17   10   11 1
    18   10   42 1
    19   10   43 1
    20   11   12 1
    21   11   44 1
    22   11   45 1
    23   12   13 1
    24   12   14 1
    25   12   32 1
    26   14   15 1
    27   14   46 1
    28   14   47 1
    29   15   16 1
    30   15   48 1
    31   15   49 1
    32   16   17 1
    33   16   50 1
    34   16   51 1
    35   17   18 1
    36   17   52 1
    37   17   53 1
    38   18   19 1
    39   18   54 1
    40   18   55 1
    41   19   20 am
    42   19   56 1
    43   20   21 2
    44   20   22 1
    45   22   23 2
    46   22   57 1
    47   23   24 1
    48   23   58 1
    49   24   31 ar
    50   24   25 ar
    51   25   26 ar
    52   25   59 1
    53   26   27 1
    54   26   28 ar
    55   28   29 1
    56   28   30 ar
    57   30   31 ar
    58   30   60 1
    59   31   61 1
    60   32   33 1
    61   32   62 1
    62   32   63 1
    63   33   64 1
    64   33   65 1
    65   34   35 ar
    66   34   66 1
    67   35   36 1
    68   35   37 ar
    69   37   67 1
##########                 Name:              T535231
##########          Protonation:                   94
##########               SMILES:   c1cc(ccc1/C=C/C(=O)NCCCCC[NH+]2CCCN(CC2)C(=O)Nc3ccc(c(c3)C(F)(F)F)Cl)Cl
##########            Long Name:   tyl]-N-[4-chloro-3-(trifluoromethyl)phenyl]-1,4-diazepan-4-ium-1-carboxamide
##########          FlexRecCode: 1
##########               Number:                  180
##########   Ligand Source File: /raidb/db2/rgc/tcams/tcams-0001374.db2.gz
##########           GlobalRank: 323
##########                 Rank:                    1
##########               Setnum:                  275
##########             Matchnum:                 3565
##########                Cloud:                    1
##########        Electrostatic:           -39.755798
##########        Van der Waals:           -29.055763
##########  Ligand Polar Desolv:             7.626802
########## Ligand Apolar Desolv:            -3.731316
##########      Internal Energy:             0.000000
##########      Receptor Energy: 0.0
########## Receptor Desolvation:             0.000000
########## Receptor Hydrophobic:             0.000000
##########         Total Energy: -64.92
##########        Ligand Charge:             1.000000
##########            Arbitrary:    +999.9990
##########     heavy atom count:   38
##########           pose count:    1
##########        Ligand Energy:             0.000000
# num electro vdwattr vdwrepu polsolv apolsol rdesolv rhydroe totalscore fullpol fullapo
#   1    1.73   -1.09    0.14   -0.56   -0.25    0.00    0.00      -0.03   -1.00   -0.44
#   2   -3.15   -1.16    0.21    1.05   -0.03    0.00    0.00      -3.08    2.23   -0.06
#   3    1.41   -0.60    0.04   -0.18   -0.17    0.00    0.00       0.49   -0.48   -0.45
#   4   -0.34   -3.53    5.13   -0.28   -0.23    0.00    0.00       0.76   -0.56   -0.45
#   5    1.03   -1.50    0.23   -0.55   -0.16    0.00    0.00      -0.95   -1.27   -0.37
#   6    0.59   -1.40    0.17   -0.35   -0.16    0.00    0.00      -1.14   -0.96   -0.44
#   7   -1.87   -1.43    0.16    1.06   -0.29    0.00    0.00      -2.37    2.50   -0.68
#   8   10.38   -1.27    0.10   -4.93    0.70    0.00    0.00       4.97  -11.80    1.67
#   9   -9.22   -1.10    0.09    4.52   -0.74    0.00    0.00      -6.45   12.36   -2.02
#  10    1.98   -2.14    0.91   -3.13    0.12    0.00    0.00      -2.25   -8.15    0.32
#  11   13.19   -0.85    0.04   -4.55    0.45    0.00    0.00       8.28  -14.51    1.44
#  12   -1.92   -0.53    0.02    0.64   -0.14    0.00    0.00      -1.94    2.06   -0.46
#  13    3.47   -0.43    0.01   -1.08   -0.06    0.00    0.00       1.92   -4.54   -0.24
#  14    0.20   -0.35    0.02   -0.06   -0.07    0.00    0.00      -0.27   -0.34   -0.36
#  15   11.05   -0.96    0.41   -2.72    0.04    0.00    0.00       7.81  -11.72    0.18
#  16  -18.58   -0.05    0.00    4.10    0.11    0.00    0.00     -14.42   17.24    0.45
#  17    0.44   -0.40    0.04   -0.01   -0.06    0.00    0.00       0.01   -0.06   -0.34
#  18    4.45   -0.97    0.37   -1.09   -0.05    0.00    0.00       2.72   -4.20   -0.20
#  19    2.03   -0.30    0.01   -0.51   -0.04    0.00    0.00       1.20   -3.01   -0.22
#  20    2.75   -0.46    0.03   -0.56   -0.05    0.00    0.00       1.72   -2.39   -0.22
#  21   -1.53   -0.41    0.04    0.28   -0.09    0.00    0.00      -1.70    1.37   -0.42
#  22    4.45   -1.08    0.43   -1.75    0.46    0.00    0.00       2.51   -8.94    2.33
#  23   -1.71   -0.47    0.09    0.50   -0.08    0.00    0.00      -1.68    3.92   -0.65
#  24    1.90   -0.16    0.00   -0.08    0.03    0.00    0.00       1.70   -0.99    0.39
#  25    0.52   -0.40    0.04   -0.23   -0.05    0.00    0.00      -0.11   -1.84   -0.43
#  26    0.01   -0.16    0.00   -0.02   -0.03    0.00    0.00      -0.21   -0.34   -0.44
#  27    0.10   -0.16    0.00   -0.04   -0.03    0.00    0.00      -0.12   -0.57   -0.41
#  28    0.12   -0.36    0.01   -0.10   -0.06    0.00    0.00      -0.39   -0.76   -0.44
#  29    0.13   -0.49    0.03   -0.15   -0.08    0.00    0.00      -0.56   -0.90   -0.46
#  30    0.02   -0.26    0.01   -0.03   -0.03    0.00    0.00      -0.29   -0.31   -0.30
#  31    0.04   -0.59    0.02   -0.05   -0.13    0.00    0.00      -0.71   -0.34   -0.99
#  32    0.09   -0.11    0.00   -0.03   -0.02    0.00    0.00      -0.08   -0.68   -0.46
#  33    0.07   -0.09    0.00   -0.03   -0.02    0.00    0.00      -0.06   -0.62   -0.45
#  34    1.44   -1.01    0.42   -0.11   -0.11    0.00    0.00       0.63   -0.40   -0.39
#  35   -3.77   -1.01    0.30    0.93   -0.16    0.00    0.00      -3.72    2.44   -0.42
#  36    1.22   -1.91    0.32   -0.45   -0.22    0.00    0.00      -1.05   -0.83   -0.40
#  37    1.29   -2.26    0.81   -0.44   -0.25    0.00    0.00      -0.85   -0.83   -0.46
#  38    0.03   -1.86    0.57   -0.18   -0.16    0.00    0.00      -1.59   -0.35   -0.30
#  39    0.16   -5.44    2.19   -0.26   -0.56    0.00    0.00      -3.91   -0.42   -0.91
#  40   -0.61   -0.26    0.04    0.63   -0.06    0.00    0.00      -0.26    2.67   -0.25
#  41   -7.59   -0.03    0.00    2.90    0.12    0.00    0.00      -4.59    9.58    0.41
#  42   -1.25   -0.18    0.01    0.43   -0.04    0.00    0.00      -1.01    2.45   -0.20
#  43   -2.42   -0.23    0.01    0.44   -0.06    0.00    0.00      -2.25    2.10   -0.28
#  44   -2.31   -0.10    0.00    0.37   -0.02    0.00    0.00      -2.06    4.41   -0.28
#  45   -3.01   -0.21    0.02    1.01   -0.05    0.00    0.00      -2.24    4.82   -0.25
#  46   -1.07   -0.14    0.02    0.38   -0.03    0.00    0.00      -0.84    3.23   -0.24
#  47   -1.68   -0.07    0.00    0.40   -0.01    0.00    0.00      -1.36    6.15   -0.21
#  48   -2.01   -0.07    0.00    0.31   -0.02    0.00    0.00      -1.78    5.07   -0.27
#  49   -2.02   -0.06    0.00    0.26   -0.02    0.00    0.00      -1.85    4.16   -0.27
#  50   -3.65   -0.73    0.70    1.07   -0.06    0.00    0.00      -2.67    3.80   -0.21
#  51   -3.08   -0.43    0.20    1.05   -0.08    0.00    0.00      -2.34    3.89   -0.28
#  52   -1.02   -0.05    0.00    0.06   -0.01    0.00    0.00      -1.02    1.43   -0.28
#  53   -0.94   -0.06    0.00    0.07   -0.01    0.00    0.00      -0.94    1.37   -0.28
#  54   -2.03   -0.24    0.03    0.50   -0.07    0.00    0.00      -1.80    2.15   -0.28
#  55   -1.70   -0.16    0.01    0.31   -0.04    0.00    0.00      -1.57    2.11   -0.28
#  56   -1.28   -0.19    0.02    0.06   -0.05    0.00    0.00      -1.44    0.32   -0.28
#  57   -0.53   -0.06    0.00    0.02   -0.02    0.00    0.00      -0.59    0.32   -0.28
#  58   -1.80   -0.03    0.00    1.47    0.11    0.00    0.00      -0.25    7.56    0.56
#  59   -0.34   -0.11    0.01    0.31   -0.02    0.00    0.00      -0.15    2.92   -0.21
#  60   -0.18   -0.02    0.00    0.01   -0.01    0.00    0.00      -0.19    0.46   -0.26
#  61   -0.25   -0.10    0.00    0.23   -0.02    0.00    0.00      -0.13    2.71   -0.21
#  62   -0.16   -0.19    0.02    0.27   -0.05    0.00    0.00      -0.11    1.50   -0.28
#  63   -0.09   -0.01    0.00    0.01   -0.01    0.00    0.00      -0.09    0.76   -0.28
#  64   -0.11   -0.01    0.00    0.02   -0.01    0.00    0.00      -0.11    1.13   -0.28
#  65   -2.49   -0.16    0.01    0.46   -0.04    0.00    0.00      -2.21    2.90   -0.28
#  66   -5.65   -0.65    0.58    1.92   -0.08    0.00    0.00      -3.88    6.19   -0.26
#  67   -4.69   -0.59    0.69    1.61   -0.09    0.00    0.00      -3.06    5.00   -0.28
#  68   -4.09   -0.35    0.06    0.48   -0.09    0.00    0.00      -3.99    1.26   -0.24
#  69   -3.12   -0.44    0.05    1.12   -0.12    0.00    0.00      -2.50    2.13   -0.22
#  70   -2.78   -0.63    0.30    0.82   -0.14    0.00    0.00      -2.43    1.63   -0.28

@<TRIPOS>MOLECULE
          T535231        94
   70    72     0     0     0



@<TRIPOS>ATOM
      1 F1          8.2941   -13.3197    96.8534 F          1          -0.1741
      2 C1          7.5661   -12.2893    96.2489 C.3        1           0.5099
      3 F2          7.9968   -12.1270    94.9278 F          1          -0.1648
      4 F3          6.2048   -12.6116    96.2594 F          1          -0.1654
      5 C2          7.7844   -11.0067    97.0095 C.ar       1          -0.1540
      6 C3          7.1580    -9.8459    96.5992 C.ar       1          -0.0848
      7 C4          7.3591    -8.6648    97.3007 C.ar       1           0.1530
      8 N1          6.7251    -7.4871    96.8872 N.am       1          -0.6776
      9 C5          5.5298    -7.5472    96.2672 C.2        1           0.7036
     10 O1          4.7574    -8.4510    96.5222 O.2        1          -0.5496
     11 N2          5.1908    -6.6056    95.3644 N.am       1          -0.6351
     12 C6          3.7652    -6.2565    95.2012 C.3        1           0.0939
     13 C7          3.4057    -6.0779    93.7147 C.3        1          -0.1568
     14 C8          4.1121    -7.1352    92.8955 C.3        1          -0.0118
     15 N3          5.3799    -6.5988    92.4056 N.4        1          -0.3665
     16 H1          5.2608    -5.6129    92.2275 H          1           0.4175
     17 C9          5.7036    -7.2616    91.1353 C.3        1          -0.0203
     18 C10         6.7124    -6.4123    90.3594 C.3        1          -0.1467
     19 C11         7.0495    -7.1025    89.0363 C.3        1          -0.1155
     20 C12         8.0584    -6.2532    88.2604 C.3        1          -0.1322
     21 C13         8.3954    -6.9436    86.9372 C.3        1           0.1175
     22 N4          7.1744    -7.0989    86.1427 N.am       1          -0.7323
     23 C14         6.4234    -8.2106    86.2717 C.2        1           0.5499
     24 O2          6.7595    -9.0853    87.0483 O.2        1          -0.5394
     25 C15         5.2034    -8.3659    85.4778 C.2        1          -0.2231
     26 C16         4.4520    -9.4781    85.6069 C.2        1          -0.0047
     27 C17         3.2255    -9.6343    84.8086 C.ar       1          -0.0807
     28 C18         3.0429    -8.8785    83.6460 C.ar       1          -0.0877
     29 C19         1.8919    -9.0303    82.9031 C.ar       1          -0.1131
     30 C20         0.9168    -9.9285    83.3058 C.ar       1          -0.0216
     31 Cl1        -0.5300   -10.1126    82.3643 Cl         1          -0.0586
     32 C21         1.0912   -10.6807    84.4562 C.ar       1          -0.1116
     33 C22         2.2396   -10.5433    85.2060 C.ar       1          -0.0781
     34 C23         6.4750    -6.7641    93.2825 C.3        1          -0.0467
     35 C24         6.2384    -5.9683    94.5935 C.3        1           0.1143
     36 C25         8.1900    -8.6537    98.4135 C.ar       1          -0.0755
     37 C26         8.8138    -9.8168    98.8195 C.ar       1          -0.0884
     38 C27         8.6075   -10.9941    98.1216 C.ar       1          -0.0028
     39 Cl2         9.3879   -12.4561    98.6385 Cl         1          -0.0294
     40 H2          6.5126    -9.8571    95.7334 H          1           0.1520
     41 H3          7.1460    -6.6279    97.0468 H          1           0.4111
     42 H4          3.1513    -7.0516    95.6245 H          1           0.0927
     43 H5          3.5613    -5.3269    95.7326 H          1           0.0957
     44 H6          2.3279    -6.1789    93.5868 H          1           0.1285
     45 H7          3.7203    -5.0892    93.3811 H          1           0.0950
     46 H8          4.3030    -8.0100    93.5171 H          1           0.1285
     47 H9          3.4859    -7.4189    92.0496 H          1           0.1395
     48 H10         6.1334    -8.2427    91.3364 H          1           0.1349
     49 H11         4.7952    -7.3772    90.5440 H          1           0.1315
     50 H12         6.2826    -5.4311    90.1582 H          1           0.0875
     51 H13         7.6208    -6.2967    90.9506 H          1           0.0894
     52 H14         7.4793    -8.0838    89.2374 H          1           0.0800
     53 H15         6.1410    -7.2181    88.4450 H          1           0.0789
     54 H16         7.6285    -5.2721    88.0592 H          1           0.0741
     55 H17         8.9667    -6.1376    88.8517 H          1           0.0749
     56 H18         9.1140    -6.3385    86.3846 H          1           0.0701
     57 H19         8.8252    -7.9248    87.1385 H          1           0.0697
     58 H20         6.9064    -6.4017    85.5239 H          1           0.4021
     59 H21         4.9051    -7.5896    84.7887 H          1           0.1309
     60 H22         4.7504   -10.2544    86.2959 H          1           0.1399
     61 H23         3.8018    -8.1775    83.3313 H          1           0.1360
     62 H24         1.7495    -8.4474    82.0052 H          1           0.1388
     63 H25         0.3271   -11.3790    84.7642 H          1           0.1407
     64 H26         2.3759   -11.1329    86.1005 H          1           0.1403
     65 H27         6.5927    -7.8220    93.5176 H          1           0.1314
     66 H28         7.3821    -6.4007    92.7997 H          1           0.1471
     67 H29         5.9398    -4.9485    94.3505 H          1           0.1034
     68 H30         7.1571    -5.9460    95.1797 H          1           0.1346
     69 H31         8.3484    -7.7362    98.9606 H          1           0.1562
     70 H32         9.4603    -9.8087    99.6845 H          1           0.1541
@<TRIPOS>BOND
     1    1    2 1
     2    2    3 1
     3    2    4 1
     4    2    5 1
     5    5   38 ar
     6    5    6 ar
     7    6    7 ar
     8    6   40 1
     9    7    8 1
    10    7   36 ar
    11    8    9 am
    12    8   41 1
    13    9   10 2
    14    9   11 am
    15   11   35 1
    16   11   12 1
    17   12   13 1
    18   12   42 1
    19   12   43 1
    20   13   14 1
    21   13   44 1
    22   13   45 1
    23   14   15 1
    24   14   46 1
    25   14   47 1
    26   15   16 1
    27   15   17 1
    28   15   34 1
    29   17   18 1
    30   17   48 1
    31   17   49 1
    32   18   19 1
    33   18   50 1
    34   18   51 1
    35   19   20 1
    36   19   52 1
    37   19   53 1
    38   20   21 1
    39   20   54 1
    40   20   55 1
    41   21   22 1
    42   21   56 1
    43   21   57 1
    44   22   23 am
    45   22   58 1
    46   23   24 2
    47   23   25 1
    48   25   26 2
    49   25   59 1
    50   26   27 1
    51   26   60 1
    52   27   33 ar
    53   27   28 ar
    54   28   29 ar
    55   28   61 1
    56   29   30 ar
    57   29   62 1
    58   30   31 1
    59   30   32 ar
    60   32   33 ar
    61   32   63 1
    62   33   64 1
    63   34   35 1
    64   34   65 1
    65   34   66 1
    66   35   67 1
    67   35   68 1
    68   36   37 ar
    69   36   69 1
    70   37   38 ar
    71   37   70 1
    72   38   39 1
##########                 Name:              T526247
##########          Protonation:                   83
##########               SMILES:   c1ccc2c(c1)c(=O)cc([nH]2)NCCC[NH2+]Cc3c(c(c(s3)Br)Br)Br
##########            Long Name:   oxo-1H-quinolin-2-yl)amino]propyl-[(3,4,5-tribromo-2-thienyl)methyl]ammonium
##########          FlexRecCode: 1
##########               Number:                  181
##########   Ligand Source File: /raidb/db2/rgc/tcams/tcams-0000143.db2.gz
##########           GlobalRank: 325
##########                 Rank:                    1
##########               Setnum:                  157
##########             Matchnum:                 6366
##########                Cloud:                    1
##########        Electrostatic:           -48.226486
##########        Van der Waals:           -28.102173
##########  Ligand Polar Desolv:            14.701044
########## Ligand Apolar Desolv:            -3.281175
##########      Internal Energy:             0.000000
##########      Receptor Energy: 0.0
########## Receptor Desolvation:             0.000000
########## Receptor Hydrophobic:             0.000000
##########         Total Energy: -64.91
##########        Ligand Charge:             1.000000
##########            Arbitrary:    +999.9990
##########     heavy atom count:   25
##########           pose count:    1
##########        Ligand Energy:             0.000000
# num electro vdwattr vdwrepu polsolv apolsol rdesolv rhydroe totalscore fullpol fullapo
#   1   -2.65   -3.96    1.04   -0.02   -0.43    0.00    0.00      -6.01   -0.05   -1.10
#   2    2.54   -1.45    0.40   -0.97   -0.05    0.00    0.00       0.48   -3.29   -0.18
#   3    0.98   -1.10    0.24   -0.38   -0.07    0.00    0.00      -0.33   -1.52   -0.29
#   4   -0.11   -3.28    1.78   -0.20   -0.26    0.00    0.00      -2.08   -0.82   -1.04
#   5    0.91   -0.81    0.09   -0.67   -0.07    0.00    0.00      -0.55   -2.83   -0.29
#   6   -0.14   -1.11    0.08   -0.01   -0.18    0.00    0.00      -1.36   -0.05   -1.04
#   7    7.15   -1.41    0.57   -0.64   -0.07    0.00    0.00       5.59   -2.54   -0.29
#   8   -2.62   -0.68    0.21    0.73   -0.09    0.00    0.00      -2.46    3.31   -0.43
#   9   21.03   -2.24    3.22   -5.81    0.21    0.00    0.00      16.41  -19.92    0.73
#  10  -29.30   -0.34    0.40    5.84    0.19    0.00    0.00     -23.22   17.49    0.57
#  11  -15.67   -0.03    0.00    4.82    0.14    0.00    0.00     -10.73   19.28    0.57
#  12    0.21   -0.61    0.07    0.15   -0.11    0.00    0.00      -0.29    0.53   -0.40
#  13    4.19   -0.64    0.06   -1.79   -0.08    0.00    0.00       1.74   -5.71   -0.24
#  14   -1.87   -0.69    0.05    0.70   -0.14    0.00    0.00      -1.95    1.91   -0.37
#  15   11.32   -1.24    0.10   -6.32    0.69    0.00    0.00       4.55  -15.40    1.68
#  16   -4.90   -1.28    0.12    3.04   -0.76    0.00    0.00      -3.77    8.16   -2.03
#  17    1.89   -1.50    0.37   -0.95   -0.15    0.00    0.00      -0.34   -2.80   -0.45
#  18   -0.70   -2.00    0.67   -0.36   -0.11    0.00    0.00      -2.51   -1.01   -0.31
#  19   -1.23   -3.68    3.44    2.06    0.16    0.00    0.00       0.75    5.73    0.44
#  20    1.05   -1.52    0.19   -0.28   -0.18    0.00    0.00      -0.74   -0.64   -0.41
#  21    0.26   -2.01    0.46   -0.12   -0.23    0.00    0.00      -1.65   -0.24   -0.45
#  22    1.27   -2.83    0.95   -0.56   -0.28    0.00    0.00      -1.45   -0.92   -0.47
#  23    0.31   -2.93    0.92   -0.44   -0.29    0.00    0.00      -2.43   -0.71   -0.47
#  24    1.56   -2.09    0.62   -1.03   -0.25    0.00    0.00      -1.19   -1.87   -0.46
#  25   -1.61   -1.66    0.41    0.95   -0.33    0.00    0.00      -2.24    2.07   -0.72
#  26    7.15   -1.56    0.24   -4.34    0.45    0.00    0.00       1.95   -9.63    1.01
#  27   -8.56   -4.43    4.27    2.34   -0.26    0.00    0.00      -6.65    7.32   -0.82
#  28   -2.65   -0.08    0.00    0.67   -0.02    0.00    0.00      -2.07    9.61   -0.28
#  29   -4.34   -0.18    0.03    1.15   -0.04    0.00    0.00      -3.38    6.97   -0.26
#  30   -4.50   -0.20    0.01    1.73   -0.06    0.00    0.00      -3.02    8.24   -0.28
#  31   -2.59   -0.10    0.00    0.67   -0.03    0.00    0.00      -2.05    7.17   -0.28
#  32   -2.10   -0.15    0.01    0.54   -0.04    0.00    0.00      -1.74    3.67   -0.28
#  33   -3.56   -0.32    0.07    1.38   -0.09    0.00    0.00      -2.53    4.19   -0.28
#  34   -1.61   -0.33    0.07    1.03   -0.08    0.00    0.00      -0.91    3.71   -0.27
#  35   -0.76   -0.22    0.03    0.71   -0.06    0.00    0.00      -0.30    3.44   -0.27
#  36   -7.43   -0.02    0.00    2.98    0.17    0.00    0.00      -4.30    9.87    0.57
#  37   -0.57   -0.28    0.10    0.10   -0.05    0.00    0.00      -0.72    0.50   -0.28
#  38   -1.62   -0.69    0.59   -0.25   -0.11    0.00    0.00      -2.08   -0.58   -0.27
#  39   -1.30   -0.98    0.74    0.52   -0.17    0.00    0.00      -1.18    0.88   -0.28
#  40    0.29   -1.23    1.42    1.65   -0.17    0.00    0.00       1.96    2.66   -0.28
#  41   -1.61   -0.52    0.26    2.19   -0.14    0.00    0.00       0.17    4.53   -0.28
#  42   -6.31   -0.02    0.00    3.88    0.16    0.00    0.00      -2.29   10.99    0.46

@<TRIPOS>MOLECULE
          T526247        83
   42    44     0     0     0



@<TRIPOS>ATOM
      1 Br1         7.7908    -4.8277    86.6886 Br         1           0.1116
      2 C1          6.7840    -5.4544    88.1615 C.2        1          -0.1101
      3 C2          5.4839    -5.8396    88.2058 C.2        1          -0.1093
      4 Br2         4.4147    -5.7927    86.6468 Br         1           0.0381
      5 C3          4.9529    -6.2675    89.4094 C.2        1          -0.0522
      6 Br3         3.1461    -6.8148    89.5207 Br         1           0.0219
      7 C4          5.7473    -6.2892    90.5077 C.2        1          -0.2379
      8 C5          5.4091    -6.7080    91.9152 C.3        1           0.0923
      9 N1          4.9244    -5.5443    92.6694 N.4        1          -0.5117
     10 H1          5.6423    -4.8358    92.6926 H          1           0.4316
     11 H2          4.0999    -5.1730    92.2215 H          1           0.4322
     12 C6          4.5945    -5.9527    94.0413 C.3        1          -0.0074
     13 C7          5.8447    -6.5158    94.7203 C.3        1          -0.1625
     14 C8          5.5012    -6.9411    96.1493 C.3        1           0.1090
     15 N2          6.6983    -7.4802    96.7994 N.pl3      1          -0.7353
     16 C9          6.9814    -8.8214    96.7133 C.2        1           0.4734
     17 C10         6.4081    -9.5600    95.7051 C.2        1          -0.3965
     18 C11         6.6837   -10.9326    95.5976 C.2        1           0.4273
     19 O1          6.1848   -11.6060    94.7092 O.2        1          -0.5032
     20 C12         7.5937   -11.5374    96.5886 C.ar       1          -0.1889
     21 C13         7.9128   -12.8942    96.5428 C.ar       1          -0.0310
     22 C14         8.7664   -13.4250    97.4844 C.ar       1          -0.1500
     23 C15         9.3080   -12.6175    98.4745 C.ar       1          -0.0586
     24 C16         9.0014   -11.2755    98.5322 C.ar       1          -0.1718
     25 C17         8.1414   -10.7198    97.5901 C.ar       1           0.1899
     26 N3          7.8251    -9.3769    97.6251 N.pl3      1          -0.6280
     27 S1          7.3002    -5.7002    89.8529 S.3        1           0.2424
     28 H3          4.6335    -7.4735    91.8901 H          1           0.1601
     29 H4          6.2998    -7.1091    92.3989 H          1           0.1581
     30 H5          4.2349    -5.0893    94.6009 H          1           0.1432
     31 H6          3.8188    -6.7181    94.0160 H          1           0.1424
     32 H7          6.2044    -7.3792    94.1607 H          1           0.1021
     33 H8          6.6204    -5.7504    94.7456 H          1           0.1023
     34 H9          5.1415    -6.0776    96.7088 H          1           0.0778
     35 H10         4.7256    -7.7066    96.1240 H          1           0.0777
     36 H11         7.2909    -6.8900    97.2907 H          1           0.4248
     37 H12         5.7459    -9.0846    94.9966 H          1           0.1449
     38 H13         7.4926   -13.5254    95.7737 H          1           0.1421
     39 H14         9.0154   -14.4754    97.4521 H          1           0.1347
     40 H15         9.9762   -13.0454    99.2072 H          1           0.1351
     41 H16         9.4283   -10.6559    99.3070 H          1           0.1301
     42 H17         8.2101    -8.8171    98.3174 H          1           0.4094
@<TRIPOS>BOND
     1    1    2 1
     2    2   27 1
     3    2    3 2
     4    3    4 1
     5    3    5 1
     6    5    6 1
     7    5    7 2
     8    7    8 1
     9    7   27 1
    10    8    9 1
    11    8   28 1
    12    8   29 1
    13    9   10 1
    14    9   11 1
    15    9   12 1
    16   12   13 1
    17   12   30 1
    18   12   31 1
    19   13   14 1
    20   13   32 1
    21   13   33 1
    22   14   15 1
    23   14   34 1
    24   14   35 1
    25   15   16 1
    26   15   36 1
    27   16   26 1
    28   16   17 2
    29   17   18 1
    30   17   37 1
    31   18   19 2
    32   18   20 1
    33   20   25 ar
    34   20   21 ar
    35   21   22 ar
    36   21   38 1
    37   22   23 ar
    38   22   39 1
    39   23   24 ar
    40   23   40 1
    41   24   25 ar
    42   24   41 1
    43   25   26 1
    44   26   42 1
##########                 Name:              T536961
##########          Protonation:                   94
##########               SMILES:   c1cc(c(cc1/C=C/C(=O)NCCCCCC[NH+]2CCCN(CC2)C(=O)Nc3cc(cc(c3)F)F)Cl)Cl
##########            Long Name:   2-enoyl]amino]hexyl]-N-(3,5-difluorophenyl)-1,4-diazepan-4-ium-1-carboxamide
##########          FlexRecCode: 1
##########               Number:                  262
##########   Ligand Source File: /raidb/db2/rgc/tcams/tcams-0001642.db2.gz
##########           GlobalRank: 325
##########                 Rank:                    1
##########               Setnum:                  258
##########             Matchnum:                 3340
##########                Cloud:                    1
##########        Electrostatic:           -36.982697
##########        Van der Waals:           -31.095848
##########  Ligand Polar Desolv:             7.749825
########## Ligand Apolar Desolv:            -4.577024
##########      Internal Energy:             0.000000
##########      Receptor Energy: 0.0
########## Receptor Desolvation:             0.000000
########## Receptor Hydrophobic:             0.000000
##########         Total Energy: -64.91
##########        Ligand Charge:             1.000000
##########            Arbitrary:    +999.9990
##########     heavy atom count:   37
##########           pose count:    1
##########        Ligand Energy:             0.000000
# num electro vdwattr vdwrepu polsolv apolsol rdesolv rhydroe totalscore fullpol fullapo
#   1    2.14   -1.52    0.47   -0.47   -0.28    0.00    0.00       0.34   -0.82   -0.48
#   2   -1.85   -2.04    0.80    0.42   -0.18    0.00    0.00      -2.84    0.82   -0.34
#   3    2.02   -1.62    0.34   -0.80   -0.20    0.00    0.00      -0.26   -1.88   -0.46
#   4   -1.21   -1.45    0.19    1.05   -0.25    0.00    0.00      -1.68    2.82   -0.68
#   5    2.93   -1.52    0.35   -3.74    0.57    0.00    0.00      -1.42  -11.01    1.67
#   6   -4.86   -1.48    0.37    3.88   -0.69    0.00    0.00      -2.78   11.36   -2.02
#   7    3.58   -2.22    0.65   -3.03    0.14    0.00    0.00      -0.88   -6.98    0.32
#   8    8.78   -0.86    0.06   -4.02    0.42    0.00    0.00       4.38  -13.82    1.44
#   9   -1.92   -0.64    0.04    0.69   -0.16    0.00    0.00      -1.99    2.02   -0.46
#  10    5.12   -1.03    0.14   -1.91   -0.10    0.00    0.00       2.21   -4.39   -0.24
#  11    0.43   -1.12    0.31   -0.12   -0.14    0.00    0.00      -0.65   -0.32   -0.36
#  12   14.14   -1.77    1.69   -3.26    0.05    0.00    0.00      10.85  -11.39    0.18
#  13  -23.54   -0.15    0.06    4.61    0.12    0.00    0.00     -18.89   16.60    0.45
#  14    0.67   -1.39    0.64    0.02   -0.11    0.00    0.00      -0.17    0.05   -0.34
#  15    4.56   -1.19    0.50   -1.24   -0.06    0.00    0.00       2.56   -4.23   -0.20
#  16    1.27   -1.13    0.30   -0.90   -0.07    0.00    0.00      -0.52   -2.85   -0.22
#  17    0.48   -0.74    0.17   -0.60   -0.06    0.00    0.00      -0.75   -2.38   -0.22
#  18    0.84   -0.20    0.00   -0.24   -0.03    0.00    0.00       0.38   -1.98   -0.22
#  19   -0.32   -0.12    0.00    0.09   -0.03    0.00    0.00      -0.38    1.24   -0.43
#  20    1.25   -0.09    0.00   -0.34    0.11    0.00    0.00       0.93   -7.49    2.33
#  21   -0.41   -0.13    0.00    0.21   -0.04    0.00    0.00      -0.36    3.46   -0.65
#  22    0.82   -0.20    0.01   -0.08    0.04    0.00    0.00       0.58   -0.91    0.39
#  23    0.09   -0.16    0.01   -0.12   -0.03    0.00    0.00      -0.21   -1.72   -0.43
#  24    0.00   -0.62    0.27   -0.03   -0.06    0.00    0.00      -0.43   -0.25   -0.44
#  25    0.01   -0.51    0.10   -0.06   -0.06    0.00    0.00      -0.52   -0.42   -0.41
#  26    0.00   -0.93    0.27   -0.14   -0.10    0.00    0.00      -0.90   -0.61   -0.43
#  27    0.01   -0.69    0.05   -0.08   -0.08    0.00    0.00      -0.79   -0.30   -0.30
#  28    0.01   -3.07    1.43   -0.10   -0.37    0.00    0.00      -2.10   -0.26   -0.95
#  29    0.01   -0.50    0.03   -0.05   -0.05    0.00    0.00      -0.55   -0.25   -0.30
#  30    0.02   -1.28    0.15   -0.05   -0.23    0.00    0.00      -1.39   -0.22   -0.95
#  31    0.07   -0.33    0.03   -0.07   -0.05    0.00    0.00      -0.36   -0.66   -0.46
#  32    0.04   -0.24    0.01   -0.06   -0.05    0.00    0.00      -0.30   -0.58   -0.45
#  33    0.96   -0.41    0.03   -0.07   -0.08    0.00    0.00       0.43   -0.36   -0.39
#  34   -2.04   -0.48    0.03    0.57   -0.10    0.00    0.00      -2.02    2.29   -0.42
#  35    0.85   -1.60    0.22   -0.61   -0.17    0.00    0.00      -1.31   -1.41   -0.40
#  36   -1.17   -1.68    0.18    0.29   -0.19    0.00    0.00      -2.58    0.52   -0.34
#  37    1.27   -1.36    0.25   -0.34   -0.28    0.00    0.00      -0.47   -0.58   -0.48
#  38    1.60   -1.97    0.41   -0.77   -0.26    0.00    0.00      -1.00   -1.35   -0.46
#  39   -2.03   -0.26    0.02    0.82   -0.08    0.00    0.00      -1.53    2.96   -0.28
#  40   -1.20   -0.02    0.00    1.87    0.08    0.00    0.00       0.73    9.41    0.41
#  41   -1.64   -0.15    0.00    0.33   -0.03    0.00    0.00      -1.48    2.46   -0.20
#  42   -1.82   -0.28    0.03    0.64   -0.08    0.00    0.00      -1.51    2.12   -0.28
#  43   -4.07   -0.60    0.23    1.73   -0.11    0.00    0.00      -2.82    4.24   -0.28
#  44   -3.63   -0.37    0.09    1.68   -0.09    0.00    0.00      -2.32    4.60   -0.25
#  45   -3.57   -0.18    0.01    0.59   -0.05    0.00    0.00      -3.19    3.13   -0.24
#  46   -6.47   -0.66    0.29    2.54   -0.09    0.00    0.00      -4.39    5.82   -0.21
#  47   -2.64   -0.16    0.01    0.82   -0.04    0.00    0.00      -2.01    5.14   -0.27
#  48   -5.75   -1.12    1.50    1.68   -0.11    0.00    0.00      -3.80    4.17   -0.27
#  49   -4.10   -1.07    1.67    1.00   -0.06    0.00    0.00      -2.56    3.27   -0.21
#  50   -1.84   -0.11    0.01    0.34   -0.03    0.00    0.00      -1.63    3.34   -0.28
#  51   -0.28   -0.16    0.02    0.30   -0.05    0.00    0.00      -0.18    1.70   -0.28
#  52   -1.60   -1.00    0.91    0.70   -0.12    0.00    0.00      -1.11    1.64   -0.28
#  53   -0.22   -0.28    0.08    0.23   -0.05    0.00    0.00      -0.24    1.23   -0.28
#  54   -0.85   -0.33    0.13    0.26   -0.06    0.00    0.00      -0.85    1.20   -0.28
#  55   -0.34   -0.05    0.00    0.07   -0.01    0.00    0.00      -0.33    1.38   -0.28
#  56   -0.81   -0.05    0.00    0.06   -0.01    0.00    0.00      -0.81    1.38   -0.28
#  57   -0.25   -0.04    0.00    0.01   -0.01    0.00    0.00      -0.28    0.36   -0.28
#  58   -0.13   -0.04    0.00    0.01   -0.01    0.00    0.00      -0.16    0.35   -0.28
#  59   -0.47    0.00    0.00    0.14    0.01    0.00    0.00      -0.32    6.20    0.56
#  60   -0.07   -0.01    0.00    0.05    0.00    0.00    0.00      -0.04    2.38   -0.21
#  61    0.04   -0.38    0.51    0.12   -0.04    0.00    0.00       0.25    0.82   -0.26
#  62    0.03   -0.34    0.18    0.49   -0.05    0.00    0.00       0.31    2.00   -0.21
#  63   -0.12   -0.05    0.00    0.06   -0.01    0.00    0.00      -0.12    1.32   -0.28
#  64   -0.09   -0.02    0.00    0.04   -0.01    0.00    0.00      -0.07    1.88   -0.28
#  65   -1.81   -0.10    0.00    0.25   -0.03    0.00    0.00      -1.68    2.70   -0.28
#  66   -2.38   -0.08    0.00    0.43   -0.02    0.00    0.00      -2.04    6.12   -0.26
#  67   -2.75   -0.24    0.04    1.04   -0.06    0.00    0.00      -1.97    4.90   -0.28
#  68   -1.38   -0.13    0.01    0.14   -0.03    0.00    0.00      -1.39    1.15   -0.24
#  69   -0.54   -0.42    0.11    0.40   -0.07    0.00    0.00      -0.51    1.27   -0.22
#  70   -0.82   -0.53    0.14    0.39   -0.15    0.00    0.00      -0.97    0.73   -0.28

@<TRIPOS>MOLECULE
          T536961        94
   70    72     0     0     0



@<TRIPOS>ATOM
      1 F1          9.3128    -9.6989    99.4684 F          1          -0.1206
      2 C1          8.7052   -10.3522    98.4537 C.ar       1           0.1596
      3 C2          7.8701    -9.6651    97.5908 C.ar       1          -0.1911
      4 C3          7.2464   -10.3367    96.5480 C.ar       1           0.2090
      5 N1          6.4017    -9.6435    95.6739 N.am       1          -0.6767
      6 C4          5.7120    -8.5715    96.1117 C.2        1           0.7029
      7 O1          5.3672    -8.5045    97.2758 O.2        1          -0.5466
      8 N2          5.4045    -7.5739    95.2593 N.am       1          -0.6352
      9 C5          4.6508    -6.3783    95.7166 C.3        1           0.0941
     10 C6          5.0166    -5.0153    95.1785 C.3        1          -0.1570
     11 C7          4.2715    -4.7931    93.8462 C.3        1          -0.0117
     12 N3          4.7927    -5.5912    92.7975 N.4        1          -0.3666
     13 H1          5.7664    -5.3578    92.6728 H          1           0.4176
     14 C8          4.0758    -5.2570    91.5595 C.3        1          -0.0198
     15 C9          4.9073    -5.6994    90.3537 C.3        1          -0.1483
     16 C10         4.1605    -5.3514    89.0643 C.3        1          -0.1172
     17 C11         4.9918    -5.7937    87.8584 C.3        1          -0.1176
     18 C12         5.2206    -7.3051    87.9232 C.3        1          -0.1337
     19 C13         3.8714    -8.0264    87.9047 C.3        1           0.1181
     20 N4          4.0906    -9.4737    87.9668 N.am       1          -0.7303
     21 C14         4.1518   -10.0954    89.1610 C.2        1           0.5491
     22 O2          4.0251    -9.4545    90.1878 O.2        1          -0.5395
     23 C15         4.3707   -11.5414    89.2231 C.2        1          -0.2131
     24 C16         3.8602   -12.2573    90.2455 C.2        1          -0.0110
     25 C17         4.0802   -13.7110    90.3078 C.ar       1          -0.0639
     26 C18         3.2434   -14.5154    91.0882 C.ar       1          -0.0832
     27 C19         3.4554   -15.8772    91.1414 C.ar       1          -0.0341
     28 Cl1         2.4181   -16.8783    92.1086 Cl         1          -0.0403
     29 C20         4.4951   -16.4485    90.4232 C.ar       1          -0.0212
     30 Cl2         4.7552   -18.1635    90.4953 Cl         1          -0.0372
     31 C21         5.3267   -15.6573    89.6482 C.ar       1          -0.0983
     32 C22         5.1233   -14.2953    89.5822 C.ar       1          -0.0757
     33 C23         4.6868    -7.0365    93.0157 C.3        1          -0.0467
     34 C24         5.8129    -7.6297    93.8326 C.3        1           0.1142
     35 C25         7.4621   -11.6971    96.3734 C.ar       1          -0.1694
     36 C26         8.2979   -12.3807    97.2385 C.ar       1           0.1564
     37 F2          8.5085   -13.7043    97.0688 F          1          -0.1218
     38 C27         8.9232   -11.7078    98.2747 C.ar       1          -0.2006
     39 H2          7.7033    -8.6070    97.7285 H          1           0.1478
     40 H3          6.3124    -9.9345    94.7529 H          1           0.4122
     41 H4          3.5991    -6.5483    95.4857 H          1           0.0927
     42 H5          4.7373    -6.3341    96.8023 H          1           0.0957
     43 H6          4.7225    -4.2482    95.8948 H          1           0.1286
     44 H7          6.0922    -4.9651    95.0093 H          1           0.0950
     45 H8          3.2185    -5.0374    93.9856 H          1           0.1284
     46 H9          4.3552    -3.7431    93.5658 H          1           0.1396
     47 H10         3.1147    -5.7709    91.5463 H          1           0.1339
     48 H11         3.9130    -4.1803    91.5133 H          1           0.1305
     49 H12         5.8684    -5.1855    90.3668 H          1           0.0872
     50 H13         5.0701    -6.7761    90.3999 H          1           0.0890
     51 H14         3.1994    -5.8653    89.0510 H          1           0.0761
     52 H15         3.9975    -4.2748    89.0180 H          1           0.0750
     53 H16         4.4598    -5.5459    86.9398 H          1           0.0706
     54 H17         5.9530    -5.2799    87.8714 H          1           0.0714
     55 H18         5.8129    -7.6201    87.0640 H          1           0.0729
     56 H19         5.7526    -7.5531    88.8418 H          1           0.0725
     57 H20         3.2792    -7.7114    88.7637 H          1           0.0687
     58 H21         3.3396    -7.7786    86.9861 H          1           0.0690
     59 H22         4.1916    -9.9845    87.1483 H          1           0.4028
     60 H23         4.9410   -12.0349    88.4500 H          1           0.1314
     61 H24         3.2898   -11.7638    91.0185 H          1           0.1442
     62 H25         2.4337   -14.0713    91.6480 H          1           0.1462
     63 H26         6.1344   -16.1088    89.0913 H          1           0.1502
     64 H27         5.7702   -13.6804    88.9742 H          1           0.1473
     65 H28         3.7441    -7.2407    93.5235 H          1           0.1312
     66 H29         4.6658    -7.5314    92.0448 H          1           0.1468
     67 H30         6.7252    -7.0514    93.6862 H          1           0.1036
     68 H31         5.9800    -8.6650    93.5358 H          1           0.1344
     69 H32         6.9776   -12.2214    95.5631 H          1           0.1565
     70 H33         9.5789   -12.2419    98.9465 H          1           0.1559
@<TRIPOS>BOND
     1    1    2 1
     2    2   38 ar
     3    2    3 ar
     4    3    4 ar
     5    3   39 1
     6    4    5 1
     7    4   35 ar
     8    5    6 am
     9    5   40 1
    10    6    7 2
    11    6    8 am
    12    8   34 1
    13    8    9 1
    14    9   10 1
    15    9   41 1
    16    9   42 1
    17   10   11 1
    18   10   43 1
    19   10   44 1
    20   11   12 1
    21   11   45 1
    22   11   46 1
    23   12   13 1
    24   12   14 1
    25   12   33 1
    26   14   15 1
    27   14   47 1
    28   14   48 1
    29   15   16 1
    30   15   49 1
    31   15   50 1
    32   16   17 1
    33   16   51 1
    34   16   52 1
    35   17   18 1
    36   17   53 1
    37   17   54 1
    38   18   19 1
    39   18   55 1
    40   18   56 1
    41   19   20 1
    42   19   57 1
    43   19   58 1
    44   20   21 am
    45   20   59 1
    46   21   22 2
    47   21   23 1
    48   23   24 2
    49   23   60 1
    50   24   25 1
    51   24   61 1
    52   25   32 ar
    53   25   26 ar
    54   26   27 ar
    55   26   62 1
    56   27   28 1
    57   27   29 ar
    58   29   30 1
    59   29   31 ar
    60   31   32 ar
    61   31   63 1
    62   32   64 1
    63   33   34 1
    64   33   65 1
    65   33   66 1
    66   34   67 1
    67   34   68 1
    68   35   36 ar
    69   35   69 1
    70   36   37 1
    71   36   38 ar
    72   38   70 1
##########                 Name:              T525563
##########          Protonation:                   41
##########               SMILES:   C[NH+]1CCN(CC1)c2cc[nH+]c3c2cc(cc3)NC(=O)Nc4cccc(c4)C#N
##########            Long Name:   -(3-cyanophenyl)-3-[4-(4-methylpiperazin-4-ium-1-yl)quinolin-1-ium-6-yl]urea
##########          FlexRecCode: 1
##########               Number:                    2
##########   Ligand Source File: /raidb/db2/rgc/tcams/tcams-0000098.db2.gz
##########           GlobalRank: 328
##########                 Rank:                    1
##########               Setnum:                   46
##########             Matchnum:                 2960
##########                Cloud:                    1
##########        Electrostatic:           -46.162735
##########        Van der Waals:           -28.777346
##########  Ligand Polar Desolv:            12.763570
########## Ligand Apolar Desolv:            -2.719987
##########      Internal Energy:             0.000000
##########      Receptor Energy: 0.0
########## Receptor Desolvation:             0.000000
########## Receptor Hydrophobic:             0.000000
##########         Total Energy: -64.9
##########        Ligand Charge:             2.000000
##########            Arbitrary:    +999.9990
##########     heavy atom count:   29
##########           pose count:    1
##########        Ligand Energy:             0.000000
# num electro vdwattr vdwrepu polsolv apolsol rdesolv rhydroe totalscore fullpol fullapo
#   1    0.76   -0.28    0.01   -0.33   -0.08    0.00    0.00       0.09   -2.02   -0.48
#   2    5.97   -0.30    0.01   -2.29    0.05    0.00    0.00       3.45  -16.54    0.39
#   3   -4.94    0.00    0.00    0.87    0.02    0.00    0.00      -4.05   21.35    0.54
#   4    0.80   -0.85    0.33   -0.19   -0.09    0.00    0.00       0.00   -0.82   -0.40
#   5   -2.74   -0.61    0.09    1.17   -0.12    0.00    0.00      -2.21    4.75   -0.49
#   6    9.38   -0.41    0.01   -4.99    0.20    0.00    0.00       4.19  -28.93    1.17
#   7   -0.59   -0.30    0.03    0.65   -0.07    0.00    0.00      -0.28    4.67   -0.49
#   8    0.22   -0.29    0.02   -0.10   -0.06    0.00    0.00      -0.21   -0.71   -0.40
#   9   -4.46   -0.49    0.01    2.53   -0.10    0.00    0.00      -2.51   13.56   -0.55
#  10    1.08   -0.63    0.02   -0.66   -0.09    0.00    0.00      -0.28   -2.88   -0.40
#  11    2.36   -0.71    0.03   -0.40   -0.11    0.00    0.00       1.18   -1.63   -0.44
#  12   -4.14   -1.05    0.07    1.45   -0.24    0.00    0.00      -3.90    4.08   -0.67
#  13   12.48   -1.22    0.13   -7.54    0.67    0.00    0.00       4.53  -19.03    1.69
#  14   -8.93   -1.08    0.07    5.86   -0.73    0.00    0.00      -4.81   16.25   -2.02
#  15    2.57   -1.45    0.46   -3.59    0.09    0.00    0.00      -1.92  -11.10    0.28
#  16    9.58   -1.50    0.24   -6.15    0.65    0.00    0.00       2.82  -16.01    1.70
#  17   -1.55   -1.55    0.38    1.22   -0.24    0.00    0.00      -1.74    3.41   -0.68
#  18    1.29   -1.59    0.27   -0.78   -0.21    0.00    0.00      -1.02   -1.73   -0.46
#  19    0.94   -1.63    0.27   -0.89   -0.22    0.00    0.00      -1.53   -1.87   -0.47
#  20    0.68   -1.44    0.15   -0.73   -0.21    0.00    0.00      -1.55   -1.53   -0.45
#  21    0.00   -1.11    0.11   -0.33   -0.15    0.00    0.00      -1.48   -0.88   -0.40
#  22    0.56   -1.23    0.24   -0.41   -0.13    0.00    0.00      -0.97   -1.30   -0.40
#  23   -2.34   -1.31    0.20    0.88   -0.50    0.00    0.00      -3.07    2.55   -1.46
#  24    4.74   -1.70    0.46   -0.88    0.23    0.00    0.00       2.86   -2.69    0.71
#  25    0.81   -1.89    0.39   -1.48   -0.19    0.00    0.00      -2.37   -3.15   -0.40
#  26    2.52   -1.64    0.21   -1.78   -0.22    0.00    0.00      -0.91   -3.78   -0.46
#  27   -2.83   -0.94    0.05    1.45   -0.26    0.00    0.00      -2.53    4.01   -0.73
#  28   11.74   -1.24    0.21   -5.99    0.34    0.00    0.00       5.06  -16.73    0.96
#  29  -16.49   -0.05    0.00    5.78    0.19    0.00    0.00     -10.56   17.46    0.58
#  30   -4.19   -0.85    0.07    2.85   -0.28    0.00    0.00      -2.40    9.73   -0.96
#  31    2.00   -0.53    0.02   -1.41   -0.10    0.00    0.00      -0.02   -6.96   -0.47
#  32   -2.31   -0.16    0.02    0.77   -0.05    0.00    0.00      -1.72    4.73   -0.28
#  33   -1.23   -0.04    0.00    0.21   -0.01    0.00    0.00      -1.07    5.22   -0.28
#  34   -2.23   -0.09    0.00    0.58   -0.03    0.00    0.00      -1.77    5.75   -0.28
#  35   -4.64   -0.35    0.24    1.32   -0.04    0.00    0.00      -3.48    7.11   -0.24
#  36   -5.81   -0.53    0.39    1.79   -0.07    0.00    0.00      -4.22    7.57   -0.28
#  37   -4.19   -0.38    0.11    1.21   -0.07    0.00    0.00      -3.33    4.45   -0.27
#  38   -1.58   -0.14    0.01    0.75   -0.05    0.00    0.00      -1.00    4.60   -0.28
#  39   -0.04   -0.22    0.06    0.56   -0.04    0.00    0.00       0.33    3.68   -0.27
#  40   -0.33   -0.05    0.00    0.22   -0.01    0.00    0.00      -0.16    4.60   -0.28
#  41   -0.50   -0.09    0.01    0.62   -0.03    0.00    0.00       0.01    6.83   -0.28
#  42   -1.22   -0.11    0.01    0.62   -0.02    0.00    0.00      -0.72    6.51   -0.24
#  43   -2.81   -0.11    0.00    1.05   -0.02    0.00    0.00      -1.89    9.59   -0.17
#  44   -8.59   -0.03    0.00    4.59    0.17    0.00    0.00      -3.87   16.32    0.59
#  45   -7.28   -0.03    0.00    4.28    0.19    0.00    0.00      -2.84   13.61    0.59
#  46   -2.10   -0.33    0.04    1.98   -0.11    0.00    0.00      -0.52    5.10   -0.28
#  47   -1.49   -0.54    0.27    1.43   -0.11    0.00    0.00      -0.45    3.51   -0.28
#  48   -1.39   -0.43    0.08    0.71   -0.11    0.00    0.00      -1.16    1.75   -0.28
#  49   -0.89   -0.19    0.02    0.30   -0.04    0.00    0.00      -0.81    1.70   -0.21
#  50   -3.71   -0.75    0.49    0.57   -0.10    0.00    0.00      -3.50    1.23   -0.21
#  51   -4.95   -0.52    0.12    2.17   -0.14    0.00    0.00      -3.31    4.33   -0.28
#  52   -4.97   -0.27    0.09    2.47   -0.06    0.00    0.00      -2.74   11.58   -0.28
#  53   -1.21   -0.08    0.00    0.77   -0.02    0.00    0.00      -0.55    8.88   -0.28

@<TRIPOS>MOLECULE
          T525563        41
   53    56     0     0     0



@<TRIPOS>ATOM
      1 C1          7.1297    -8.2329    90.7434 C.3        1          -0.0495
      2 N1          5.7030    -7.8860    90.7901 N.4        1          -0.3846
      3 H1          5.3045    -7.9819    89.8680 H          1           0.4305
      4 C2          5.5533    -6.4977    91.2440 C.3        1          -0.0265
      5 C3          4.0754    -6.0981    91.1837 C.3        1           0.1142
      6 N2          3.2957    -7.0771    91.9568 N.pl3      1          -0.6904
      7 C4          3.5058    -8.5062    91.6782 C.3        1           0.1141
      8 C5          5.0111    -8.7907    91.7168 C.3        1          -0.0268
      9 C6          2.3883    -6.6644    92.9216 C.ar       1           0.3155
     10 C7          2.7865    -6.4823    94.2682 C.ar       1          -0.0617
     11 C8          4.1081    -6.7119    94.6732 C.ar       1          -0.1299
     12 C9          4.4553    -6.5229    95.9936 C.ar       1           0.2227
     13 N3          5.7741    -6.7506    96.4044 N.am       1          -0.6841
     14 C10         6.3255    -7.9712    96.2542 C.2        1           0.7036
     15 O1          5.6776    -8.8746    95.7619 O.2        1          -0.5408
     16 N4          7.5951    -8.1905    96.6498 N.am       1          -0.6662
     17 C11         8.1677    -9.4581    96.4938 C.ar       1           0.1409
     18 C12         9.1383    -9.8966    97.3868 C.ar       1          -0.1073
     19 C13         9.7074   -11.1474    97.2373 C.ar       1          -0.0920
     20 C14         9.3154   -11.9696    96.2005 C.ar       1          -0.0724
     21 C15         8.3409   -11.5386    95.2982 C.ar       1          -0.0004
     22 C16         7.7628   -10.2779    95.4526 C.ar       1          -0.0745
     23 C17         7.9320   -12.3896    94.2214 C.1        1           0.2422
     24 N5          7.6077   -13.0645    93.3672 N.1        1          -0.3942
     25 C18         3.5004    -6.1047    96.9261 C.ar       1          -0.0396
     26 C19         2.2124    -5.8766    96.5545 C.ar       1          -0.1058
     27 C20         1.8241    -6.0598    95.2158 C.ar       1           0.1282
     28 N6          0.5611    -5.8387    94.8311 N.ar       1          -0.4470
     29 H2         -0.0895    -5.5490    95.4897 H          1           0.4545
     30 C21         0.1805    -6.0034    93.5862 C.ar       1           0.2127
     31 C22         1.0655    -6.4119    92.5968 C.ar       1          -0.1682
     32 H3          7.5614    -8.1298    91.7390 H          1           0.1302
     33 H4          7.2423    -9.2625    90.4036 H          1           0.1304
     34 H5          7.6439    -7.5641    90.0532 H          1           0.1216
     35 H6          5.9120    -6.4100    92.2696 H          1           0.1284
     36 H7          6.1344    -5.8395    90.5982 H          1           0.1500
     37 H8          3.9465    -5.1051    91.6143 H          1           0.1225
     38 H9          3.7381    -6.0976    90.1472 H          1           0.1009
     39 H10         3.0006    -9.1052    92.4357 H          1           0.1223
     40 H11         3.1111    -8.7489    90.6916 H          1           0.1013
     41 H12         5.1923    -9.8236    91.4196 H          1           0.1498
     42 H13         5.3866    -8.6320    92.7278 H          1           0.1294
     43 H14         4.8487    -7.0349    93.9566 H          1           0.1447
     44 H15         6.2910    -6.0298    96.7971 H          1           0.4172
     45 H16         8.1120    -7.4697    97.0425 H          1           0.4154
     46 H17         9.4493    -9.2578    98.2002 H          1           0.1378
     47 H18        10.4616   -11.4821    97.9340 H          1           0.1472
     48 H19         9.7628   -12.9460    96.0868 H          1           0.1427
     49 H20         7.0052    -9.9407    94.7606 H          1           0.1425
     50 H21         3.7902    -5.9612    97.9566 H          1           0.1734
     51 H22         1.4878    -5.5545    97.2877 H          1           0.1689
     52 H23        -0.8494    -5.8129    93.3227 H          1           0.2180
     53 H24         0.7233    -6.5351    91.5799 H          1           0.1883
@<TRIPOS>BOND
     1    1    2 1
     2    1   32 1
     3    1   33 1
     4    1   34 1
     5    2    3 1
     6    2    8 1
     7    2    4 1
     8    4    5 1
     9    4   35 1
    10    4   36 1
    11    5    6 1
    12    5   37 1
    13    5   38 1
    14    6    7 1
    15    6    9 1
    16    7    8 1
    17    7   39 1
    18    7   40 1
    19    8   41 1
    20    8   42 1
    21    9   31 ar
    22    9   10 ar
    23   10   27 ar
    24   10   11 ar
    25   11   12 ar
    26   11   43 1
    27   12   13 1
    28   12   25 ar
    29   13   14 am
    30   13   44 1
    31   14   15 2
    32   14   16 am
    33   16   17 1
    34   16   45 1
    35   17   22 ar
    36   17   18 ar
    37   18   19 ar
    38   18   46 1
    39   19   20 ar
    40   19   47 1
    41   20   21 ar
    42   20   48 1
    43   21   22 ar
    44   21   23 1
    45   22   49 1
    46   23   24 3
    47   25   26 ar
    48   25   50 1
    49   26   27 ar
    50   26   51 1
    51   27   28 ar
    52   28   29 1
    53   28   30 ar
    54   30   31 ar
    55   30   52 1
    56   31   53 1
##########                 Name:              T534955
##########          Protonation:                   20
##########               SMILES:   Cc1ccc(cc1)n2cc(c(n2)c3cccc(c3)C)C[NH2+]CCCn4cc[nH+]c4
##########            Long Name:   dazol-3-ium-1-ylpropyl-[[3-(m-tolyl)-1-(p-tolyl)pyrazol-4-yl]methyl]ammonium
##########          FlexRecCode: 1
##########               Number:                  205
##########   Ligand Source File: /raidb/db2/rgc/tcams/tcams-0001287.db2.gz
##########           GlobalRank: 328
##########                 Rank:                    1
##########               Setnum:                  116
##########             Matchnum:                  692
##########                Cloud:                    1
##########        Electrostatic:           -64.252380
##########        Van der Waals:           -17.487768
##########  Ligand Polar Desolv:            19.497213
########## Ligand Apolar Desolv:            -2.658988
##########      Internal Energy:             0.000000
##########      Receptor Energy: 0.0
########## Receptor Desolvation:             0.000000
########## Receptor Hydrophobic:             0.000000
##########         Total Energy: -64.9
##########        Ligand Charge:             2.000000
##########            Arbitrary:    +999.9990
##########     heavy atom count:   29
##########           pose count:    1
##########        Ligand Energy:             0.000000
# num electro vdwattr vdwrepu polsolv apolsol rdesolv rhydroe totalscore fullpol fullapo
#   1    0.05   -0.02    0.00   -0.04    0.00    0.00    0.00      -0.01   -1.54   -0.20
#   2    0.03   -0.05    0.00   -0.05   -0.01    0.00    0.00      -0.08   -1.75   -0.41
#   3    0.04   -0.16    0.01   -0.11   -0.03    0.00    0.00      -0.26   -1.59   -0.46
#   4    0.02   -0.37    0.07   -0.24   -0.05    0.00    0.00      -0.57   -2.13   -0.46
#   5   -0.06   -0.17    0.01    0.18   -0.05    0.00    0.00      -0.09    2.40   -0.71
#   6    0.10   -0.07    0.00   -0.09   -0.02    0.00    0.00      -0.08   -2.22   -0.44
#   7    0.07   -0.05    0.00   -0.05   -0.01    0.00    0.00      -0.05   -1.78   -0.46
#   8    0.23   -0.25    0.01   -0.70    0.07    0.00    0.00      -0.63   -7.34    0.73
#   9   -0.53   -0.19    0.00    0.20   -0.07    0.00    0.00      -0.59    2.62   -0.91
#  10    3.30   -0.32    0.01   -0.99   -0.05    0.00    0.00       1.95   -7.46   -0.39
#  11   -1.82   -0.58    0.07    1.11   -0.10    0.00    0.00      -1.33    4.44   -0.41
#  12   18.48   -2.07    1.68   -7.22    0.22    0.00    0.00      11.09  -23.84    0.73
#  13  -24.76   -0.17    0.04    8.47    0.22    0.00    0.00     -16.19   21.97    0.57
#  14  -16.55   -0.04    0.00    4.21    0.12    0.00    0.00     -12.26   19.94    0.56
#  15    0.15   -0.67    0.10    0.02   -0.10    0.00    0.00      -0.49    0.08   -0.40
#  16    5.06   -1.01    0.26   -2.35   -0.07    0.00    0.00       1.89   -8.17   -0.24
#  17   -1.62   -0.44    0.02    0.91   -0.11    0.00    0.00      -1.23    3.88   -0.46
#  18    9.17   -0.84    0.05   -5.68    0.38    0.00    0.00       3.07  -17.64    1.17
#  19   -0.35   -0.62    0.03    0.13   -0.25    0.00    0.00      -1.06    0.52   -0.98
#  20   -0.31   -1.47    0.42   -0.81   -0.35    0.00    0.00      -2.52   -2.35   -1.02
#  21   17.65   -4.16    4.76   -8.63    0.51    0.00    0.00      10.13  -19.24    1.14
#  22  -26.25   -0.34    0.17    8.78    0.28    0.00    0.00     -17.35   18.24    0.59
#  23   -9.28   -1.78    0.34    5.65   -1.39    0.00    0.00      -6.45   13.09   -3.21
#  24   -0.90   -0.51    0.06    0.49   -0.11    0.00    0.00      -0.98    3.23   -0.73
#  25    0.04   -0.93    0.40   -1.23    0.19    0.00    0.00      -1.54   -7.57    1.15
#  26    0.33   -0.83    0.19   -0.13   -0.08    0.00    0.00      -0.52   -0.65   -0.39
#  27    0.96   -1.01    0.26   -0.50   -0.10    0.00    0.00      -0.39   -2.11   -0.42
#  28    1.15   -1.02    0.16   -0.79   -0.14    0.00    0.00      -0.64   -2.73   -0.47
#  29    1.35   -1.06    0.10   -1.02   -0.16    0.00    0.00      -0.79   -2.98   -0.46
#  30    1.08   -0.89    0.07   -0.69   -0.12    0.00    0.00      -0.56   -2.26   -0.40
#  31    2.76   -0.85    0.07   -0.98   -0.09    0.00    0.00       0.91   -2.30   -0.20
#  32    1.08   -0.72    0.08   -0.52   -0.09    0.00    0.00      -0.17   -2.58   -0.44
#  33   -0.03   -0.01    0.00    0.01    0.00    0.00    0.00      -0.03    0.80   -0.28
#  34   -0.03    0.00    0.00    0.01    0.00    0.00    0.00      -0.03    0.61   -0.28
#  35   -0.03    0.00    0.00    0.02    0.00    0.00    0.00      -0.02    1.24   -0.28
#  36   -0.04   -0.03    0.00    0.04   -0.01    0.00    0.00      -0.05    1.09   -0.28
#  37    0.02   -0.31    0.34    0.10   -0.04    0.00    0.00       0.11    0.75   -0.27
#  38   -0.14   -0.02    0.00    0.14   -0.01    0.00    0.00      -0.02    5.77   -0.23
#  39   -0.11   -0.01    0.00    0.06    0.00    0.00    0.00      -0.06    3.27   -0.28
#  40   -0.63   -0.03    0.00    0.35   -0.01    0.00    0.00      -0.33    9.41   -0.25
#  41   -1.85   -0.22    0.04    1.61   -0.04    0.00    0.00      -0.46    7.44   -0.20
#  42   -3.52   -0.17    0.01    1.78   -0.05    0.00    0.00      -1.95   10.26   -0.28
#  43   -1.94   -0.06    0.00    0.54   -0.02    0.00    0.00      -1.47    8.99   -0.28
#  44   -1.22   -0.23    0.04    1.87   -0.06    0.00    0.00       0.40    9.34   -0.28
#  45   -4.58   -0.88    0.72    1.68   -0.10    0.00    0.00      -3.16    4.63   -0.28
#  46   -3.00   -0.25    0.05    1.06   -0.06    0.00    0.00      -2.19    5.15   -0.28
#  47   -1.41   -0.06    0.00    0.46   -0.02    0.00    0.00      -1.03    7.84   -0.28
#  48   -1.10   -0.16    0.01    0.99   -0.04    0.00    0.00      -0.31    6.42   -0.28
#  49   -2.09   -0.06    0.00    0.52   -0.02    0.00    0.00      -1.64    9.43   -0.28
#  50   -2.92   -0.26    0.07    1.37   -0.06    0.00    0.00      -1.80    6.91   -0.28
#  51   -8.80   -0.40    0.06    5.95   -0.11    0.00    0.00      -3.29   15.31   -0.28
#  52   -0.92   -0.14    0.01    0.93   -0.03    0.00    0.00      -0.15    7.30   -0.21
#  53   -1.46   -0.18    0.01    0.88   -0.05    0.00    0.00      -0.81    5.24   -0.28
#  54   -1.96   -0.25    0.02    0.79   -0.08    0.00    0.00      -1.49    2.69   -0.28
#  55   -1.83   -0.19    0.01    0.48   -0.07    0.00    0.00      -1.61    1.92   -0.28
#  56   -1.46   -0.36    0.07    0.13   -0.11    0.00    0.00      -1.74    0.33   -0.28
#  57   -1.99   -0.43    0.09    0.28   -0.10    0.00    0.00      -2.13    0.83   -0.28
#  58   -1.86   -0.09    0.00    0.10   -0.02    0.00    0.00      -1.88    1.13   -0.28

@<TRIPOS>MOLECULE
          T534955        20
   58    61     0     0     0



@<TRIPOS>ATOM
      1 C1          2.1076   -13.9481    86.7948 C.3        1          -0.1264
      2 C2          2.4210   -12.7824    87.6972 C.ar       1          -0.0648
      3 C3          2.7322   -13.0031    89.0264 C.ar       1          -0.0966
      4 C4          3.0200   -11.9370    89.8559 C.ar       1          -0.0972
      5 C5          2.9968   -10.6427    89.3539 C.ar       1           0.1117
      6 C6          2.6843   -10.4243    88.0187 C.ar       1          -0.1224
      7 C7          2.4023   -11.4951    87.1930 C.ar       1          -0.0960
      8 N1          3.2877    -9.5589    90.1930 N.pl3      1          -0.2868
      9 C8          3.2943    -8.2491    89.8323 C.2        1           0.1135
     10 C9          3.6209    -7.5209    90.9220 C.2        1          -0.3125
     11 C10         3.7467    -6.0202    90.9809 C.3        1           0.0866
     12 N2          5.1278    -5.6320    90.6648 N.4        1          -0.5110
     13 H1          5.2121    -4.6272    90.7041 H          1           0.4287
     14 H2          5.7562    -6.0487    91.3352 H          1           0.4289
     15 C11         5.4712    -6.0996    89.3151 C.3        1          -0.0072
     16 C12         6.9096    -5.6951    88.9859 C.3        1          -0.1766
     17 C13         7.2671    -6.1824    87.5803 C.3        1           0.1009
     18 N3          8.6444    -5.7950    87.2648 N.pl3      1          -0.4192
     19 C14         9.7712    -6.5336    87.5066 C.2        1           0.0223
     20 C15        10.8153    -5.8082    87.0621 C.2        1           0.0148
     21 N4         10.3388    -4.6583    86.5626 N.pl3      1          -0.4706
     22 H3         10.8755    -3.9494    86.1747 H          1           0.4701
     23 C16         9.0387    -4.6456    86.6761 C.cat      1           0.2927
     24 C17         3.8231    -8.4125    91.9939 C.2        1           0.1399
     25 N5          3.6166    -9.6355    91.5524 N.2        1          -0.2493
     26 C18         4.1984    -8.0381    93.3800 C.ar       1          -0.0418
     27 C19         5.3843    -8.5140    93.9361 C.ar       1          -0.1220
     28 C20         5.7286    -8.1623    95.2253 C.ar       1          -0.1103
     29 C21         4.8987    -7.3394    95.9656 C.ar       1          -0.1012
     30 C22         3.7204    -6.8646    95.4188 C.ar       1          -0.0703
     31 C23         2.8214    -5.9690    96.2314 C.3        1          -0.1268
     32 C24         3.3692    -7.2051    94.1279 C.ar       1          -0.0881
     33 H4          2.1711   -14.8755    87.3640 H          1           0.0822
     34 H5          1.1003   -13.8364    86.3936 H          1           0.0757
     35 H6          2.8246   -13.9754    85.9743 H          1           0.0750
     36 H7          2.7500   -14.0102    89.4162 H          1           0.1411
     37 H8          3.2623   -12.1099    90.8941 H          1           0.1402
     38 H9          2.6655    -9.4187    87.6253 H          1           0.1301
     39 H10         2.1631   -11.3262    86.1534 H          1           0.1412
     40 H11         3.0770    -7.8593    88.8487 H          1           0.1915
     41 H12         3.0679    -5.5700    90.2567 H          1           0.1406
     42 H13         3.4920    -5.6733    91.9823 H          1           0.1419
     43 H14         5.3802    -7.1850    89.2726 H          1           0.1427
     44 H15         4.7923    -5.6494    88.5909 H          1           0.1435
     45 H16         7.0006    -4.6099    89.0284 H          1           0.1050
     46 H17         7.5884    -6.1455    89.7101 H          1           0.1030
     47 H18         7.1761    -7.2677    87.5378 H          1           0.1324
     48 H19         6.5883    -5.7321    86.8560 H          1           0.1348
     49 H20         9.8149    -7.5101    87.9660 H          1           0.2260
     50 H21        11.8540    -6.1011    87.1011 H          1           0.2279
     51 H22         8.3866    -3.8470    86.3547 H          1           0.2623
     52 H23         6.0326    -9.1571    93.3594 H          1           0.1255
     53 H24         6.6474    -8.5305    95.6573 H          1           0.1339
     54 H25         5.1718    -7.0668    96.9743 H          1           0.1329
     55 H26         1.9472    -5.6977    95.6393 H          1           0.0759
     56 H27         2.5016    -6.4949    97.1311 H          1           0.0743
     57 H28         3.3647    -5.0665    96.5118 H          1           0.0768
     58 H29         2.4512    -6.8299    93.7001 H          1           0.1306
@<TRIPOS>BOND
     1    1    2 1
     2    1   33 1
     3    1   34 1
     4    1   35 1
     5    2    7 ar
     6    2    3 ar
     7    3    4 ar
     8    3   36 1
     9    4    5 ar
    10    4   37 1
    11    5    6 ar
    12    5    8 1
    13    6    7 ar
    14    6   38 1
    15    7   39 1
    16    8   25 1
    17    8    9 1
    18    9   10 2
    19    9   40 1
    20   10   11 1
    21   10   24 1
    22   11   12 1
    23   11   41 1
    24   11   42 1
    25   12   13 1
    26   12   14 1
    27   12   15 1
    28   15   16 1
    29   15   43 1
    30   15   44 1
    31   16   17 1
    32   16   45 1
    33   16   46 1
    34   17   18 1
    35   17   47 1
    36   17   48 1
    37   18   23 1
    38   18   19 1
    39   19   20 2
    40   19   49 1
    41   20   21 1
    42   20   50 1
    43   21   22 1
    44   21   23 2
    45   23   51 1
    46   24   25 2
    47   24   26 1
    48   26   32 ar
    49   26   27 ar
    50   27   28 ar
    51   27   52 1
    52   28   29 ar
    53   28   53 1
    54   29   30 ar
    55   29   54 1
    56   30   31 1
    57   30   32 ar
    58   31   55 1
    59   31   56 1
    60   31   57 1
    61   32   58 1
##########                 Name:              T537060
##########          Protonation:                   31
##########               SMILES:   CC(C)(C[NH2+]CCOc1ccc(cc1)Cl)c2[nH]c(c(n2)c3ccc(c(c3)O)Cl)c4ccnc(n4)N
##########            Long Name:   henyl)-1H-imidazol-2-yl]-2-methyl-propyl]-[2-(4-chlorophenoxy)ethyl]ammonium
##########          FlexRecCode: 1
##########               Number:                   98
##########   Ligand Source File: /raidb/db2/rgc/tcams/tcams-0001591.db2.gz
##########           GlobalRank: 328
##########                 Rank:                    1
##########               Setnum:                  156
##########             Matchnum:                 3984
##########                Cloud:                    1
##########        Electrostatic:           -36.447025
##########        Van der Waals:           -34.922882
##########  Ligand Polar Desolv:            10.104024
########## Ligand Apolar Desolv:            -3.638786
##########      Internal Energy:             0.000000
##########      Receptor Energy: 0.0
########## Receptor Desolvation:             0.000000
########## Receptor Hydrophobic:             0.000000
##########         Total Energy: -64.9
##########        Ligand Charge:             1.000000
##########            Arbitrary:    +999.9990
##########     heavy atom count:   35
##########           pose count:    1
##########        Ligand Energy:             0.000000
# num electro vdwattr vdwrepu polsolv apolsol rdesolv rhydroe totalscore fullpol fullapo
#   1    4.79   -1.00    0.32   -1.83   -0.05    0.00    0.00       2.23   -5.26   -0.15
#   2   -0.18   -0.67    0.04    0.21   -0.03    0.00    0.00      -0.63    0.60   -0.08
#   3    4.18   -1.02    0.11   -2.25   -0.07    0.00    0.00       0.94   -4.94   -0.16
#   4   -0.21   -1.10    0.19    0.34   -0.12    0.00    0.00      -0.89    0.87   -0.30
#   5   12.58   -0.78    0.04   -5.71    0.22    0.00    0.00       6.35  -17.79    0.68
#   6   -9.54   -0.01    0.00    2.52    0.06    0.00    0.00      -6.97   17.76    0.44
#   7   -9.26   -0.01    0.00    1.76    0.04    0.00    0.00      -7.47   16.59    0.42
#   8   -0.04   -1.07    0.12    0.40   -0.19    0.00    0.00      -0.77    0.93   -0.43
#   9   -0.69   -0.78    0.07   -0.13   -0.03    0.00    0.00      -1.55   -0.34   -0.09
#  10    6.56   -0.92    0.06   -2.87    0.32    0.00    0.00       3.14   -7.82    0.86
#  11   -1.96   -1.52    0.30    1.32   -0.13    0.00    0.00      -2.00    3.16   -0.31
#  12    2.73   -2.82    0.97   -1.70   -0.22    0.00    0.00      -1.03   -3.31   -0.42
#  13    1.02   -3.31    1.15   -0.74   -0.26    0.00    0.00      -2.14   -1.29   -0.46
#  14    0.99   -2.05    0.29   -0.67   -0.16    0.00    0.00      -1.59   -1.21   -0.29
#  15    1.16   -6.48    4.04   -0.55   -0.60    0.00    0.00      -2.43   -0.90   -0.98
#  16    1.15   -1.92    0.46   -0.56   -0.21    0.00    0.00      -1.08   -1.21   -0.46
#  17    2.37   -1.32    0.16   -0.94   -0.18    0.00    0.00       0.09   -2.34   -0.46
#  18   -3.03   -0.85    0.10    1.56   -0.48    0.00    0.00      -2.70    5.77   -1.78
#  19    4.82   -0.86    0.17   -1.71    0.42    0.00    0.00       2.84   -7.91    1.93
#  20   -0.37   -0.74    0.18    0.14   -0.14    0.00    0.00      -0.93    0.75   -0.73
#  21   -0.10   -0.71    0.08   -0.01   -0.18    0.00    0.00      -0.93   -0.03   -0.74
#  22    5.77   -0.95    0.11   -2.78    0.32    0.00    0.00       2.47   -9.35    1.09
#  23   -0.35   -0.68    0.05    0.63   -0.17    0.00    0.00      -0.51    2.38   -0.63
#  24    0.23   -0.96    0.09   -1.10   -0.16    0.00    0.00      -1.91   -3.03   -0.45
#  25   -0.13   -1.41    0.32    0.62   -0.40    0.00    0.00      -1.00    1.51   -0.98
#  26    0.46   -1.59    0.54   -1.08    0.68    0.00    0.00      -0.98   -3.30    2.08
#  27   -0.72   -1.03    0.34    0.78   -1.41    0.00    0.00      -2.04    2.73   -4.94
#  28    1.08   -1.26    0.77   -1.38    0.25    0.00    0.00      -0.55   -5.33    0.95
#  29    0.85   -0.71    0.07   -0.98    0.35    0.00    0.00      -0.42   -3.73    1.33
#  30   -0.02   -0.51    0.05    0.03   -0.07    0.00    0.00      -0.52    0.18   -0.39
#  31    0.09   -0.21    0.00   -0.04   -0.03    0.00    0.00      -0.18   -0.44   -0.36
#  32    0.16   -0.16    0.00   -0.04   -0.03    0.00    0.00      -0.08   -0.60   -0.46
#  33    0.12   -0.30    0.01   -0.06   -0.03    0.00    0.00      -0.26   -0.48   -0.29
#  34    0.12   -0.58    0.03   -0.04   -0.12    0.00    0.00      -0.59   -0.36   -0.97
#  35   -0.33   -0.89    0.16    0.15   -0.07    0.00    0.00      -0.98    0.64   -0.31
#  36    1.88   -1.92    1.15   -1.07    0.35    0.00    0.00       0.39   -3.51    1.14
#  37    0.27   -1.24    0.32   -0.23   -0.12    0.00    0.00      -1.00   -0.85   -0.45
#  38   -1.62   -0.15    0.01    0.25   -0.04    0.00    0.00      -1.55    1.57   -0.26
#  39   -3.20   -0.74    1.25    0.64   -0.09    0.00    0.00      -2.14    1.92   -0.28
#  40   -2.16   -0.45    0.19    1.50   -0.07    0.00    0.00      -0.99    4.69   -0.23
#  41   -1.54   -0.31    0.03    1.54   -0.07    0.00    0.00      -0.36    4.99   -0.23
#  42   -2.23   -0.37    0.14    0.52   -0.08    0.00    0.00      -2.03    1.75   -0.28
#  43   -2.32   -0.50    0.14    0.44   -0.11    0.00    0.00      -2.36    1.09   -0.28
#  44   -3.24   -0.63    0.52    1.64   -0.10    0.00    0.00      -1.80    4.63   -0.28
#  45   -3.73   -0.75    0.69    1.95   -0.11    0.00    0.00      -1.94    5.07   -0.28
#  46   -6.05   -0.48    0.11    2.13   -0.12    0.00    0.00      -4.41    5.14   -0.28
#  47   -4.96   -0.64    0.25    3.15   -0.12    0.00    0.00      -2.32    7.50   -0.28
#  48   -3.37   -0.17    0.02    0.42   -0.04    0.00    0.00      -3.13    2.89   -0.26
#  49   -3.16   -0.34    0.05    1.52   -0.09    0.00    0.00      -2.02    4.38   -0.26
#  50   -2.07   -0.76    0.29    2.38   -0.12    0.00    0.00      -0.26    4.56   -0.22
#  51   -2.59   -1.21    0.96    0.95   -0.17    0.00    0.00      -2.07    1.56   -0.28
#  52   -2.57   -0.99    1.31    0.45   -0.10    0.00    0.00      -1.90    1.31   -0.28
#  53   -3.28   -0.25    0.03    0.76   -0.07    0.00    0.00      -2.81    3.16   -0.28
#  54   -7.00   -0.02    0.00    2.23    0.14    0.00    0.00      -4.66    9.29    0.57
#  55   -0.10   -0.26    0.03    1.00   -0.09    0.00    0.00       0.59    3.30   -0.28
#  56   -0.05   -0.51    0.29    0.96   -0.10    0.00    0.00       0.58    2.60   -0.28
#  57   -0.46   -0.02    0.00    0.71    0.13    0.00    0.00       0.36    3.11    0.59
#  58   -0.66   -0.01    0.00    0.59    0.11    0.00    0.00       0.03    3.12    0.59
#  59   -0.16   -0.03    0.00    0.02   -0.01    0.00    0.00      -0.17    0.64   -0.21
#  60   -0.17   -0.02    0.00    0.02   -0.01    0.00    0.00      -0.17    0.74   -0.28
#  61   -5.44   -0.14    0.04    1.68    0.46    0.00    0.00      -3.40    4.50    1.22
#  62   -0.81   -0.69    0.66    0.65   -0.10    0.00    0.00      -0.29    1.83   -0.28

@<TRIPOS>MOLECULE
          T537060        31
   62    65     0     0     0



@<TRIPOS>ATOM
      1 C1          0.0774    -6.1705    94.6785 C.3        1          -0.1743
      2 C2          0.2238    -4.9562    93.7591 C.3        1           0.0079
      3 C3         -0.9702    -4.0202    93.9567 C.3        1          -0.1684
      4 C4          1.5167    -4.2122    94.0992 C.3        1           0.0089
      5 N1          2.5823    -5.1843    94.3780 N.4        1          -0.5132
      6 H1          2.3127    -5.7641    95.1586 H          1           0.4255
      7 H2          2.7310    -5.7628    93.5648 H          1           0.4318
      8 C5          3.8237    -4.4699    94.7046 C.3        1           0.0011
      9 C6          4.9334    -5.4824    94.9950 C.3        1           0.0228
     10 O1          4.5516    -6.3037    96.1004 O.3        1          -0.3266
     11 C7          5.5513    -6.7884    96.8832 C.ar       1           0.1168
     12 C8          5.3219    -7.0362    98.2287 C.ar       1          -0.1906
     13 C9          6.3393    -7.5289    99.0228 C.ar       1          -0.0685
     14 C10         7.5867    -7.7748    98.4770 C.ar       1          -0.0597
     15 Cl1         8.8639    -8.3934    99.4771 Cl         1          -0.0513
     16 C11         7.8175    -7.5288    97.1351 C.ar       1          -0.0683
     17 C12         6.8010    -7.0415    96.3365 C.ar       1          -0.1291
     18 C13         0.2706    -5.4150    92.3245 C.2        1           0.2249
     19 N2          1.3548    -5.7259    91.6693 N.2        1          -0.4687
     20 C14         1.0346    -6.0931    90.4160 C.2        1           0.1170
     21 C15        -0.3415    -5.9998    90.2975 C.2        1           0.0407
     22 N3         -0.8030    -5.5725    91.5230 N.pl3      1          -0.5374
     23 C16        -1.1502    -6.3012    89.1024 C.ar       1           0.2804
     24 C17        -0.9410    -5.6017    87.9060 C.ar       1          -0.2877
     25 C18        -1.7237    -5.9196    86.8130 C.ar       1           0.2095
     26 N4         -2.6416    -6.8684    86.9262 N.ar       1          -0.5641
     27 C19        -2.8193    -7.5150    88.0694 C.ar       1           0.5801
     28 N5         -3.7898    -8.4992    88.1432 N.pl3      1          -0.8128
     29 N6         -2.0894    -7.2481    89.1405 N.ar       1          -0.5477
     30 C20         1.9799    -6.5183    89.3574 C.ar       1           0.0064
     31 C21         1.8670    -7.7864    88.7871 C.ar       1          -0.0581
     32 C22         2.7484    -8.1800    87.8009 C.ar       1          -0.1016
     33 C23         3.7450    -7.3199    87.3751 C.ar       1          -0.0517
     34 Cl2         4.8500    -7.8224    86.1340 Cl         1          -0.0495
     35 C24         3.8639    -6.0553    87.9377 C.ar       1           0.1110
     36 O2          4.8441    -5.2132    87.5157 O.3        1          -0.4856
     37 C25         2.9808    -5.6503    88.9243 C.ar       1          -0.1010
     38 H3          0.9280    -6.8374    94.5379 H          1           0.0847
     39 H4          0.0435    -5.8386    95.7161 H          1           0.0850
     40 H5         -0.8438    -6.7006    94.4364 H          1           0.0723
     41 H6         -0.8659    -3.1550    93.3017 H          1           0.0680
     42 H7         -1.8914    -4.5501    93.7144 H          1           0.0852
     43 H8         -1.0041    -3.6882    94.9943 H          1           0.0861
     44 H9          1.8080    -3.5858    93.2561 H          1           0.1449
     45 H10         1.3561    -3.5873    94.9776 H          1           0.1509
     46 H11         4.1148    -3.8437    93.8614 H          1           0.1472
     47 H12         3.6630    -3.8449    95.5830 H          1           0.1567
     48 H13         5.0940    -6.1074    94.1164 H          1           0.1143
     49 H14         5.8546    -4.9524    95.2372 H          1           0.0894
     50 H15         4.3485    -6.8437    98.6553 H          1           0.1376
     51 H16         6.1610    -7.7218   100.0704 H          1           0.1428
     52 H17         8.7916    -7.7217    96.7108 H          1           0.1474
     53 H18         6.9802    -6.8535    95.2883 H          1           0.1431
     54 H19        -1.7287    -5.4123    91.7645 H          1           0.4278
     55 H20        -0.1861    -4.8322    87.8402 H          1           0.1390
     56 H21        -1.5890    -5.4000    85.8760 H          1           0.1750
     57 H22        -4.3291    -8.7078    87.3645 H          1           0.4203
     58 H23        -3.9304    -8.9803    88.9737 H          1           0.4172
     59 H24         1.0903    -8.4601    89.1176 H          1           0.1248
     60 H25         2.6601    -9.1621    87.3604 H          1           0.1384
     61 H26         4.8473    -4.3570    87.9650 H          1           0.3946
     62 H27         3.0695    -4.6660    89.3597 H          1           0.1386
@<TRIPOS>BOND
     1    1    2 1
     2    1   38 1
     3    1   39 1
     4    1   40 1
     5    2    3 1
     6    2    4 1
     7    2   18 1
     8    3   41 1
     9    3   42 1
    10    3   43 1
    11    4    5 1
    12    4   44 1
    13    4   45 1
    14    5    6 1
    15    5    7 1
    16    5    8 1
    17    8    9 1
    18    8   46 1
    19    8   47 1
    20    9   10 1
    21    9   48 1
    22    9   49 1
    23   10   11 1
    24   11   17 ar
    25   11   12 ar
    26   12   13 ar
    27   12   50 1
    28   13   14 ar
    29   13   51 1
    30   14   15 1
    31   14   16 ar
    32   16   17 ar
    33   16   52 1
    34   17   53 1
    35   18   22 1
    36   18   19 2
    37   19   20 1
    38   20   21 2
    39   20   30 1
    40   21   22 1
    41   21   23 1
    42   22   54 1
    43   23   29 ar
    44   23   24 ar
    45   24   25 ar
    46   24   55 1
    47   25   26 ar
    48   25   56 1
    49   26   27 ar
    50   27   28 1
    51   27   29 ar
    52   28   57 1
    53   28   58 1
    54   30   37 ar
    55   30   31 ar
    56   31   32 ar
    57   31   59 1
    58   32   33 ar
    59   32   60 1
    60   33   34 1
    61   33   35 ar
    62   35   36 1
    63   35   37 ar
    64   36   61 1
    65   37   62 1
##########                 Name:              T525090
##########          Protonation:                   99
##########               SMILES:   C[C@@H](Cc1ccc(cc1)c2[nH]c3ccccc3n2)[NH2+]C[C@H](c4cccc(c4)C(F)(F)F)O
##########            Long Name:   -1-methyl-ethyl]-[(2S)-2-hydroxy-2-[3-(trifluoromethyl)phenyl]ethyl]ammonium
##########          FlexRecCode: 1
##########               Number:                  241
##########   Ligand Source File: /raidb/db2/rgc/tcams/tcams-0000095.db2.gz
##########           GlobalRank: 329
##########                 Rank:                    1
##########               Setnum:                  242
##########             Matchnum:                   40
##########                Cloud:                    1
##########        Electrostatic:           -46.251865
##########        Van der Waals:           -27.221527
##########  Ligand Polar Desolv:            12.439580
########## Ligand Apolar Desolv:            -3.853465
##########      Internal Energy:             0.000000
##########      Receptor Energy: 0.0
########## Receptor Desolvation:             0.000000
########## Receptor Hydrophobic:             0.000000
##########         Total Energy: -64.89
##########        Ligand Charge:             1.000000
##########            Arbitrary:    +999.9990
##########     heavy atom count:   32
##########           pose count:    1
##########        Ligand Energy:             0.000000
# num electro vdwattr vdwrepu polsolv apolsol rdesolv rhydroe totalscore fullpol fullapo
#   1    3.64   -0.42    0.01   -1.49   -0.04    0.00    0.00       1.69   -6.07   -0.18
#   2   -0.89   -0.93    0.16    0.79   -0.08    0.00    0.00      -0.96    2.26   -0.24
#   3    3.54   -1.14    0.15   -1.35   -0.09    0.00    0.00       1.11   -3.06   -0.21
#   4    3.32   -1.10    0.09   -0.43   -0.12    0.00    0.00       1.77   -1.20   -0.33
#   5    4.52   -1.50    0.45   -0.96   -0.14    0.00    0.00       2.36   -2.55   -0.38
#   6    1.35   -1.32    0.25   -0.49   -0.15    0.00    0.00      -0.36   -1.43   -0.45
#   7    0.02   -1.02    0.07   -0.41   -0.14    0.00    0.00      -1.49   -1.19   -0.41
#   8    1.05   -1.36    0.18   -0.65   -0.17    0.00    0.00      -0.95   -1.76   -0.45
#   9    1.85   -1.07    0.07   -0.82   -0.16    0.00    0.00      -0.13   -2.27   -0.45
#  10   -2.61   -1.28    0.13    0.74   -0.77    0.00    0.00      -3.80    2.06   -2.14
#  11    1.83   -1.51    0.22   -0.48    0.73    0.00    0.00       0.79   -1.34    2.04
#  12   -0.26   -1.48    0.19   -0.06   -0.33    0.00    0.00      -1.94   -0.15   -0.79
#  13    0.44   -1.75    0.28   -0.17   -0.24    0.00    0.00      -1.45   -0.34   -0.47
#  14    0.99   -2.37    0.51   -0.33   -0.28    0.00    0.00      -1.48   -0.55   -0.47
#  15    0.50   -2.66    0.68   -0.41   -0.29    0.00    0.00      -2.17   -0.67   -0.47
#  16    1.14   -2.16    0.74   -0.35   -0.26    0.00    0.00      -0.89   -0.64   -0.47
#  17   -0.56   -1.71    0.49   -0.02   -0.35    0.00    0.00      -2.16   -0.04   -0.78
#  18    7.07   -1.53    0.21   -1.80    0.52    0.00    0.00       4.46   -3.94    1.14
#  19   18.39   -1.61    0.83   -5.21    0.19    0.00    0.00      12.58  -17.34    0.62
#  20  -24.90   -0.14    0.03    5.13    0.14    0.00    0.00     -19.73   15.02    0.42
#  21  -11.78   -0.01    0.00    2.36    0.07    0.00    0.00      -9.36   17.04    0.53
#  22    1.21   -1.21    0.40   -0.28   -0.11    0.00    0.00       0.01   -0.88   -0.36
#  23   -2.98   -0.83    0.16    1.12   -0.04    0.00    0.00      -2.57    4.02   -0.14
#  24   10.68   -0.45    0.03   -2.80    0.30    0.00    0.00       7.76  -15.49    1.64
#  25    0.51   -0.76    0.08   -0.52   -0.08    0.00    0.00      -0.76   -2.26   -0.35
#  26    0.22   -1.79    1.14   -0.34   -0.12    0.00    0.00      -0.89   -1.20   -0.44
#  27    0.21   -1.40    0.60   -0.56   -0.12    0.00    0.00      -1.26   -2.17   -0.47
#  28    0.08   -0.54    0.04   -0.26   -0.08    0.00    0.00      -0.76   -1.40   -0.44
#  29    0.26   -0.27    0.01   -0.27   -0.04    0.00    0.00      -0.33   -2.46   -0.37
#  30    0.15   -0.32    0.01   -0.17   -0.06    0.00    0.00      -0.39   -1.23   -0.44
#  31   -0.59   -0.11    0.00    0.20    0.00    0.00    0.00      -0.50    3.22   -0.07
#  32    0.18   -0.11    0.00   -0.09   -0.04    0.00    0.00      -0.06   -0.94   -0.44
#  33    0.17   -0.05    0.00   -0.06   -0.02    0.00    0.00       0.04   -1.27   -0.48
#  34    0.22   -0.11    0.00   -0.09   -0.04    0.00    0.00      -0.02   -1.08   -0.48
#  35   -1.23   -0.09    0.00    0.29   -0.02    0.00    0.00      -1.06    3.37   -0.21
#  36   -1.32   -0.10    0.00    0.29   -0.03    0.00    0.00      -1.15    3.18   -0.28
#  37   -2.48   -0.14    0.00    0.31   -0.04    0.00    0.00      -2.35    2.12   -0.28
#  38   -4.10   -0.62    0.57    1.88   -0.10    0.00    0.00      -2.37    5.46   -0.28
#  39   -5.70   -0.60    0.23    1.70   -0.13    0.00    0.00      -4.51    3.55   -0.28
#  40   -3.17   -0.47    0.11    1.63   -0.10    0.00    0.00      -2.01    4.44   -0.28
#  41   -6.66   -1.16    4.39    1.89   -0.09    0.00    0.00      -1.64    5.83   -0.28
#  42   -3.22   -0.74    0.79    0.31   -0.08    0.00    0.00      -2.94    1.06   -0.27
#  43   -0.71   -0.56    0.23    0.72   -0.09    0.00    0.00      -0.42    1.92   -0.24
#  44   -2.74   -0.22    0.01    1.02   -0.07    0.00    0.00      -1.99    4.15   -0.28
#  45   -1.15   -0.51    0.26    0.12   -0.11    0.00    0.00      -1.39    0.31   -0.28
#  46   -1.36   -0.75    0.34    0.63   -0.16    0.00    0.00      -1.30    1.09   -0.28
#  47    0.12   -1.04    0.83    0.88   -0.17    0.00    0.00       0.62    1.43   -0.28
#  48   -1.69   -0.58    0.37    0.68   -0.14    0.00    0.00      -1.36    1.37   -0.28
#  49   -6.64   -0.02    0.00    1.76    0.19    0.00    0.00      -4.70    4.81    0.53
#  50   -1.93   -0.16    0.02    1.04   -0.03    0.00    0.00      -1.06    6.73   -0.22
#  51   -4.35   -1.19    1.80    2.28   -0.12    0.00    0.00      -1.57    5.47   -0.28
#  52   -4.84   -0.61    0.36    1.25   -0.09    0.00    0.00      -3.93    3.90   -0.28
#  53  -10.47   -0.01    0.00    1.73    0.14    0.00    0.00      -8.61   12.75    1.01
#  54   -0.52   -0.80    1.02    1.71   -0.07    0.00    0.00       1.34    5.94   -0.24
#  55   -0.28   -0.41    0.19    0.66   -0.07    0.00    0.00       0.08    2.62   -0.28
#  56   -0.20   -0.11    0.01    0.10   -0.03    0.00    0.00      -0.23    0.86   -0.25
#  57   -0.57   -0.04    0.00    0.12   -0.01    0.00    0.00      -0.50    2.76   -0.28

@<TRIPOS>MOLECULE
          T525090        99
   57    60     0     0     0



@<TRIPOS>ATOM
      1 C1          2.3244    -5.8721    93.7099 C.3        1          -0.1841
      2 C2          3.3525    -4.8053    93.3281 C.3        1           0.0294
      3 C3          4.1831    -4.4343    94.5583 C.3        1          -0.1006
      4 C4          4.8968    -5.6579    95.0729 C.ar       1          -0.1174
      5 C5          6.1591    -5.9693    94.5974 C.ar       1          -0.1382
      6 C6          6.8174    -7.0889    95.0625 C.ar       1          -0.0623
      7 C7          6.2076    -7.9090    96.0125 C.ar       1          -0.0012
      8 C8          4.9343    -7.5902    96.4861 C.ar       1          -0.0941
      9 C9          4.2885    -6.4650    96.0166 C.ar       1          -0.0988
     10 C10         6.9074    -9.1112    96.5151 C.2        1           0.2977
     11 N1          6.8299   -10.3060    95.9826 N.2        1          -0.4661
     12 C11         7.5942   -11.1713    96.6923 C.ar       1           0.0446
     13 C12         7.8680   -12.5373    96.5673 C.ar       1          -0.0599
     14 C13         8.7012   -13.1489    97.4600 C.ar       1          -0.1223
     15 C14         9.2825   -12.4288    98.4943 C.ar       1          -0.0868
     16 C15         9.0273   -11.0814    98.6375 C.ar       1          -0.1163
     17 C16         8.1831   -10.4417    97.7403 C.ar       1           0.0595
     18 N2          7.7380    -9.1416    97.6027 N.pl3      1          -0.5933
     19 N3          4.2375    -5.3310    92.2801 N.4        1          -0.5065
     20 H1          5.0894    -4.7908    92.2571 H          1           0.4271
     21 H2          4.4565    -6.2960    92.4776 H          1           0.4298
     22 C17         3.5635    -5.2383    90.9782 C.3        1          -0.0476
     23 C18         4.4852    -5.7859    89.8866 C.3        1           0.1360
     24 O1          5.1615    -6.9471    90.3726 O.3        1          -0.5423
     25 C19         3.6671    -6.1513    88.6749 C.ar       1          -0.1419
     26 C20         3.9155    -5.5361    87.4619 C.ar       1          -0.0757
     27 C21         3.1652    -5.8713    86.3506 C.ar       1          -0.1084
     28 C22         2.1666    -6.8221    86.4518 C.ar       1          -0.0523
     29 C23         1.9188    -7.4377    87.6643 C.ar       1          -0.1721
     30 C24         2.6723    -7.1056    88.7749 C.ar       1          -0.0512
     31 C25         0.8300    -8.4738    87.7746 C.3        1           0.5062
     32 F1          0.2159    -8.6395    86.5286 F          1          -0.1707
     33 F2          1.3840    -9.6904    88.1871 F          1          -0.1744
     34 F3         -0.1207    -8.0531    88.7108 F          1          -0.1714
     35 H3          1.7325    -6.1364    92.8335 H          1           0.0823
     36 H4          2.8402    -6.7577    94.0806 H          1           0.0853
     37 H5          1.6677    -5.4820    94.4874 H          1           0.1093
     38 H6          2.8366    -3.9196    92.9575 H          1           0.1415
     39 H7          4.9156    -3.6743    94.2866 H          1           0.1241
     40 H8          3.5266    -4.0444    95.3361 H          1           0.1018
     41 H9          6.6300    -5.3338    93.8621 H          1           0.1313
     42 H10         7.8026    -7.3306    94.6917 H          1           0.1487
     43 H11         4.4568    -8.2212    97.2213 H          1           0.1296
     44 H12         3.3046    -6.2152    96.3852 H          1           0.1371
     45 H13         7.4209   -13.1075    95.7664 H          1           0.1336
     46 H14         8.9098   -14.2039    97.3602 H          1           0.1361
     47 H15         9.9389   -12.9274    99.1922 H          1           0.1368
     48 H16         9.4822   -10.5261    99.4445 H          1           0.1274
     49 H17         7.9687    -8.3909    98.1718 H          1           0.4232
     50 H18         2.6432    -5.8220    91.0031 H          1           0.1413
     51 H19         3.3270    -4.1959    90.7648 H          1           0.1452
     52 H20         5.2177    -5.0259    89.6147 H          1           0.1337
     53 H21         5.7086    -6.7856    91.1536 H          1           0.3887
     54 H22         4.6955    -4.7934    87.3829 H          1           0.1338
     55 H23         3.3589    -5.3902    85.4033 H          1           0.1463
     56 H24         1.5798    -7.0835    85.5836 H          1           0.1489
     57 H25         2.4811    -7.5893    89.7215 H          1           0.1396
@<TRIPOS>BOND
     1    1    2 1
     2    1   35 1
     3    1   36 1
     4    1   37 1
     5    2    3 1
     6    2   19 1
     7    2   38 1
     8    3    4 1
     9    3   39 1
    10    3   40 1
    11    4    9 ar
    12    4    5 ar
    13    5    6 ar
    14    5   41 1
    15    6    7 ar
    16    6   42 1
    17    7    8 ar
    18    7   10 1
    19    8    9 ar
    20    8   43 1
    21    9   44 1
    22   10   18 1
    23   10   11 2
    24   11   12 1
    25   12   17 ar
    26   12   13 ar
    27   13   14 ar
    28   13   45 1
    29   14   15 ar
    30   14   46 1
    31   15   16 ar
    32   15   47 1
    33   16   17 ar
    34   16   48 1
    35   17   18 1
    36   18   49 1
    37   19   20 1
    38   19   21 1
    39   19   22 1
    40   22   23 1
    41   22   50 1
    42   22   51 1
    43   23   24 1
    44   23   25 1
    45   23   52 1
    46   24   53 1
    47   25   30 ar
    48   25   26 ar
    49   26   27 ar
    50   26   54 1
    51   27   28 ar
    52   27   55 1
    53   28   29 ar
    54   28   56 1
    55   29   30 ar
    56   29   31 1
    57   30   57 1
    58   31   32 1
    59   31   33 1
    60   31   34 1
##########                 Name:              T525634
##########          Protonation:                   11
##########               SMILES:   CC1(NC(=[NH2+])NC(=[NH2+])N1OCCCSc2ccccc2)C
##########            Long Name:   -6,6-dimethyl-1-(3-phenylsulfanylpropoxy)-1,3,5-triazinan-2-ylidene]ammonium
##########          FlexRecCode: 1
##########               Number:                  253
##########   Ligand Source File: /raidb/db2/rgc/tcams/tcams-0000052.db2.gz
##########           GlobalRank: 330
##########                 Rank:                    1
##########               Setnum:                  310
##########             Matchnum:                 1258
##########                Cloud:                    1
##########        Electrostatic:           -56.030865
##########        Van der Waals:           -25.565899
##########  Ligand Polar Desolv:            20.346844
########## Ligand Apolar Desolv:            -3.623388
##########      Internal Energy:             0.000000
##########      Receptor Energy: 0.0
########## Receptor Desolvation:             0.000000
########## Receptor Hydrophobic:             0.000000
##########         Total Energy: -64.87
##########        Ligand Charge:             2.000000
##########            Arbitrary:    +999.9990
##########     heavy atom count:   21
##########           pose count:    1
##########        Ligand Energy:             0.000000
# num electro vdwattr vdwrepu polsolv apolsol rdesolv rhydroe totalscore fullpol fullapo
#   1    2.43   -0.36    0.02   -1.58   -0.03    0.00    0.00       0.48   -8.12   -0.18
#   2   -4.01   -0.30    0.02    2.85   -0.06    0.00    0.00      -1.51   17.94   -0.38
#   3    0.08   -0.67    0.26   -1.21   -0.03    0.00    0.00      -1.57   -6.77   -0.16
#   4    9.67   -0.38    0.01   -5.01    0.24    0.00    0.00       4.54  -32.25    1.52
#   5  -20.84   -1.28    0.32   10.27   -1.24    0.00    0.00     -12.77   37.49   -4.53
#   6   23.61   -2.79    1.89  -10.45    0.30    0.00    0.00      12.56  -31.47    0.89
#   7  -11.11   -0.02    0.00    4.50    0.11    0.00    0.00      -6.51   23.62    0.60
#   8  -26.78   -0.19    0.06   10.32    0.25    0.00    0.00     -16.34   24.49    0.60
#   9   21.51   -1.89    0.59   -9.98    0.37    0.00    0.00      10.59  -31.29    1.15
#  10  -19.97   -0.85    0.07    9.21   -1.12    0.00    0.00     -12.66   35.89   -4.37
#  11   20.27   -1.10    0.07  -11.33    0.33    0.00    0.00       8.25  -30.82    0.89
#  12  -16.98   -0.03    0.00    9.06    0.22    0.00    0.00      -7.72   24.17    0.60
#  13  -11.59   -0.01    0.00    3.31    0.07    0.00    0.00      -8.22   21.60    0.45
#  14    6.81   -0.51    0.02   -3.91    0.16    0.00    0.00       2.57  -21.24    0.87
#  15    0.58   -0.68    0.08   -0.96    0.10    0.00    0.00      -0.87   -4.05    0.43
#  16   -0.13   -0.51    0.02    0.25   -0.04    0.00    0.00      -0.41    0.84   -0.13
#  17    1.59   -0.51    0.04   -0.80   -0.06    0.00    0.00       0.25   -3.01   -0.24
#  18    3.14   -1.06    0.37   -0.78   -0.03    0.00    0.00       1.63   -2.15   -0.09
#  19    2.17   -2.92    0.74   -1.70   -0.34    0.00    0.00      -2.05   -3.92   -0.78
#  20    2.27   -2.31    0.52   -0.78   -0.16    0.00    0.00      -0.47   -1.38   -0.29
#  21    3.13   -3.63    1.43   -1.26   -0.26    0.00    0.00      -0.59   -2.14   -0.44
#  22    2.33   -4.49    1.52   -1.16   -0.31    0.00    0.00      -2.12   -1.74   -0.47
#  23    2.65   -4.65    2.99   -1.36   -0.32    0.00    0.00      -0.70   -2.01   -0.47
#  24    2.24   -3.59    1.49   -1.05   -0.33    0.00    0.00      -1.23   -1.51   -0.47
#  25    2.28   -2.45    0.43   -1.10   -0.29    0.00    0.00      -1.12   -1.76   -0.46
#  26   -1.14   -0.07    0.00    0.24   -0.02    0.00    0.00      -1.00    3.47   -0.27
#  27   -2.95   -0.13    0.01    0.54   -0.04    0.00    0.00      -2.56    4.15   -0.28
#  28   -0.45   -0.17    0.03    0.72   -0.04    0.00    0.00       0.09    5.09   -0.26
#  29   -0.10   -0.09    0.01    0.26   -0.03    0.00    0.00       0.04    2.60   -0.26
#  30    0.00   -0.14    0.04    0.23   -0.03    0.00    0.00       0.09    2.16   -0.28
#  31    0.64   -0.92    1.54    0.93   -0.07    0.00    0.00       2.12    3.88   -0.28
#  32   -3.89    0.00    0.00    0.92    0.03    0.00    0.00      -2.94   21.32    0.58
#  33  -16.67   -0.06    0.00    9.42    0.21    0.00    0.00      -7.09   26.04    0.59
#  34   -2.29   -0.25    0.04    1.19   -0.07    0.00    0.00      -1.38    4.45   -0.26
#  35   -1.56   -0.14    0.00    0.78   -0.03    0.00    0.00      -0.95    5.85   -0.22
#  36   -1.17   -0.10    0.00    0.22   -0.03    0.00    0.00      -1.07    2.23   -0.28
#  37   -0.89   -0.18    0.02    0.30   -0.05    0.00    0.00      -0.79    1.59   -0.28
#  38   -2.43   -0.48    0.53    0.79   -0.06    0.00    0.00      -1.66    3.33   -0.27
#  39   -3.48   -0.70    0.55    1.51   -0.10    0.00    0.00      -2.23    3.99   -0.27
#  40   -2.52   -1.25    1.04    2.46   -0.11    0.00    0.00      -0.38    4.56   -0.21
#  41   -2.89   -1.58    1.24    2.05   -0.19    0.00    0.00      -1.38    3.00   -0.28
#  42   -3.08   -1.34    1.40    1.10   -0.19    0.00    0.00      -2.11    1.63   -0.28
#  43   -3.22   -1.24    1.47    0.76   -0.17    0.00    0.00      -2.40    1.22   -0.28
#  44   -3.27   -0.58    0.14    0.57   -0.15    0.00    0.00      -3.29    1.04   -0.28

@<TRIPOS>MOLECULE
          T525634        11
   44    45     0     0     0



@<TRIPOS>ATOM
      1 C1          5.3197    -8.2153    92.6324 C.3        1          -0.1920
      2 C2          3.8875    -7.9159    92.1848 C.3        1           0.4028
      3 C3          3.1092    -9.2237    92.0274 C.3        1          -0.1743
      4 N1          3.9062    -7.1861    90.9036 N.pl3      1          -0.7062
      5 C4          4.2692    -5.8471    90.9437 C.cat      1           0.7708
      6 N2          5.0906    -5.3306    90.0747 N.pl3      1          -0.6661
      7 H1          5.4672    -5.8856    89.3739 H          1           0.4688
      8 H2          5.3258    -4.3911    90.1284 H          1           0.4606
      9 N3          3.7059    -5.0863    91.9666 N.pl3      1          -0.6707
     10 C5          3.5899    -5.7165    93.2044 C.cat      1           0.7650
     11 N4          3.8138    -5.0850    94.3214 N.pl3      1          -0.6720
     12 H3          4.0692    -4.1493    94.3068 H          1           0.4603
     13 H4          3.7250    -5.5504    95.1678 H          1           0.4602
     14 N5          3.2222    -7.0545    93.1796 N.pl3      1          -0.4872
     15 O1          2.2500    -7.5700    94.0708 O.3        1          -0.0667
     16 C6          1.2586    -6.6187    94.4631 C.3        1           0.0069
     17 C7          0.2085    -6.4911    93.3577 C.3        1          -0.0990
     18 C8         -0.8529    -5.4725    93.7777 C.3        1          -0.1190
     19 S1         -0.0681    -3.8608    94.0553 S.3        1          -0.0913
     20 C9         -1.3286    -2.6976    93.6515 C.ar       1          -0.0947
     21 C10        -1.1268    -1.7788    92.6285 C.ar       1          -0.1356
     22 C11        -2.1168    -0.8688    92.3149 C.ar       1          -0.1010
     23 C12        -3.3081    -0.8710    93.0174 C.ar       1          -0.1133
     24 C13        -3.5123    -1.7835    94.0363 C.ar       1          -0.0943
     25 C14        -2.5292    -2.7005    94.3514 C.ar       1          -0.0942
     26 H5          5.8057    -8.8520    91.8932 H          1           0.1123
     27 H6          5.8733    -7.2812    92.7276 H          1           0.1249
     28 H7          5.3002    -8.7258    93.5952 H          1           0.0694
     29 H8          2.0903    -9.0040    91.7085 H          1           0.1108
     30 H9          3.5970    -9.8492    91.2798 H          1           0.1016
     31 H10         3.0859    -9.7496    92.9818 H          1           0.1157
     32 H11         3.6744    -7.6227    90.0690 H          1           0.4667
     33 H12         3.4116    -4.1729    91.8254 H          1           0.4812
     34 H13         0.7788    -6.9524    95.3832 H          1           0.0962
     35 H14         1.7302    -5.6502    94.6299 H          1           0.0697
     36 H15         0.6884    -6.1572    92.4376 H          1           0.0981
     37 H16        -0.2630    -7.4595    93.1908 H          1           0.1034
     38 H17        -1.6010    -5.3815    92.9902 H          1           0.0962
     39 H18        -1.3328    -5.8061    94.6977 H          1           0.0927
     40 H19        -0.1966    -1.7763    92.0798 H          1           0.1161
     41 H20        -1.9605    -0.1542    91.5203 H          1           0.1283
     42 H21        -4.0807    -0.1579    92.7700 H          1           0.1319
     43 H22        -4.4437    -1.7821    94.5831 H          1           0.1355
     44 H23        -2.6913    -3.4162    95.1438 H          1           0.1314
@<TRIPOS>BOND
     1    1    2 1
     2    1   26 1
     3    1   27 1
     4    1   28 1
     5    2   14 1
     6    2    3 1
     7    2    4 1
     8    3   29 1
     9    3   30 1
    10    3   31 1
    11    4    5 1
    12    4   32 1
    13    5    6 2
    14    5    9 1
    15    6    7 1
    16    6    8 1
    17    9   10 1
    18    9   33 1
    19   10   11 2
    20   10   14 1
    21   11   12 1
    22   11   13 1
    23   14   15 1
    24   15   16 1
    25   16   17 1
    26   16   34 1
    27   16   35 1
    28   17   18 1
    29   17   36 1
    30   17   37 1
    31   18   19 1
    32   18   38 1
    33   18   39 1
    34   19   20 1
    35   20   25 ar
    36   20   21 ar
    37   21   22 ar
    38   21   40 1
    39   22   23 ar
    40   22   41 1
    41   23   24 ar
    42   23   42 1
    43   24   25 ar
    44   24   43 1
    45   25   44 1
##########                 Name:              T527640
##########          Protonation:                   86
##########               SMILES:   COc1c(cccc1)c2cc(ccc2)C[NH2+][C@H]3CCN(CC3)C[C@@H]4c5c6n(c(=O)ccc6ccc5F)C4
##########            Long Name:   (oxo)BLAHyl]methyl]-4-piperidyl]-[[3-(2-methoxyphenyl)phenyl]methyl]ammonium
##########          FlexRecCode: 1
##########               Number:                   67
##########   Ligand Source File: /raidb/db2/rgc/tcams/tcams-0000322.db2.gz
##########           GlobalRank: 332
##########                 Rank:                    1
##########               Setnum:                  157
##########             Matchnum:                 1861
##########                Cloud:                    1
##########        Electrostatic:           -46.270355
##########        Van der Waals:           -28.790598
##########  Ligand Polar Desolv:            15.030134
########## Ligand Apolar Desolv:            -4.816325
##########      Internal Energy:             0.000000
##########      Receptor Energy: 0.0
########## Receptor Desolvation:             0.000000
########## Receptor Hydrophobic:             0.000000
##########         Total Energy: -64.85
##########        Ligand Charge:             1.000000
##########            Arbitrary:    +999.9990
##########     heavy atom count:   37
##########           pose count:    1
##########        Ligand Energy:             0.000000
# num electro vdwattr vdwrepu polsolv apolsol rdesolv rhydroe totalscore fullpol fullapo
#   1   -0.12   -0.71    0.09    0.04    0.01    0.00    0.00      -0.69    0.13    0.03
#   2    2.10   -0.94    0.09   -0.75    0.24    0.00    0.00       0.74   -2.43    0.77
#   3   -1.22   -1.24    0.13    0.23   -0.11    0.00    0.00      -2.21    0.64   -0.31
#   4    1.78   -1.18    0.08   -0.77   -0.19    0.00    0.00      -0.28   -1.70   -0.42
#   5    0.60   -1.59    0.20   -0.48   -0.25    0.00    0.00      -1.53   -0.90   -0.47
#   6    1.94   -2.24    0.80   -0.89   -0.26    0.00    0.00      -0.65   -1.64   -0.47
#   7    1.00   -2.21    0.79   -0.43   -0.24    0.00    0.00      -1.09   -0.80   -0.44
#   8    1.23   -1.50    0.21   -0.42   -0.17    0.00    0.00      -0.65   -0.96   -0.39
#   9    0.23   -1.37    0.12   -0.49   -0.16    0.00    0.00      -1.67   -1.11   -0.36
#  10    0.73   -2.50    0.85   -0.74   -0.20    0.00    0.00      -1.87   -1.49   -0.41
#  11    1.85   -2.83    1.19   -1.17   -0.23    0.00    0.00      -1.20   -2.40   -0.47
#  12    2.11   -2.97    2.50   -0.74   -0.20    0.00    0.00       0.70   -1.68   -0.45
#  13    4.10   -1.65    0.44   -1.18   -0.16    0.00    0.00       1.56   -2.69   -0.37
#  14   -1.78   -1.82    1.26    0.98   -0.20    0.00    0.00      -1.57    1.96   -0.40
#  15   22.94   -2.58    3.62   -7.53    0.27    0.00    0.00      16.72  -16.80    0.60
#  16  -15.92   -0.03    0.00    6.42    0.22    0.00    0.00      -9.31   16.60    0.56
#  17  -27.65   -0.22    0.12    6.21    0.15    0.00    0.00     -21.38   13.99    0.34
#  18   -0.78   -0.74    0.18    0.61   -0.07    0.00    0.00      -0.80    2.22   -0.27
#  19    4.60   -0.98    0.60   -0.96   -0.06    0.00    0.00       3.20   -3.83   -0.23
#  20   -0.56   -0.30    0.01    0.08   -0.07    0.00    0.00      -0.84    0.44   -0.38
#  21    6.78   -0.37    0.01   -1.66    0.45    0.00    0.00       5.20  -11.18    3.02
#  22   -0.99   -0.40    0.03    0.29   -0.07    0.00    0.00      -1.14    1.33   -0.32
#  23    0.28   -0.20    0.00   -0.02   -0.03    0.00    0.00       0.03   -0.15   -0.20
#  24   -0.31   -0.13    0.00    0.08   -0.04    0.00    0.00      -0.41    0.94   -0.53
#  25    1.06   -0.33    0.01   -0.34    0.23    0.00    0.00       0.63   -2.54    1.71
#  26   -0.54   -0.63    0.06    0.18   -0.13    0.00    0.00      -1.06    0.96   -0.69
#  27    0.45   -1.11    0.20   -0.44   -0.12    0.00    0.00      -1.02   -1.56   -0.41
#  28    0.02   -1.20    0.16    0.17   -0.16    0.00    0.00      -1.01    0.48   -0.47
#  29    0.39   -0.94    0.14   -0.35   -0.12    0.00    0.00      -0.87   -1.38   -0.46
#  30   -0.90   -0.42    0.02    0.07   -0.10    0.00    0.00      -1.33    0.43   -0.65
#  31    0.68   -0.26    0.01    0.28    0.06    0.00    0.00       0.76    2.26    0.45
#  32    0.06   -1.66    0.40   -0.02   -0.16    0.00    0.00      -1.38   -0.06   -0.46
#  33    2.41   -1.94    1.07   -0.77   -0.16    0.00    0.00       0.60   -2.19   -0.46
#  34   -3.16   -1.30    0.35    0.49   -0.09    0.00    0.00      -3.71    1.80   -0.34
#  35    4.26   -1.01    0.28   -0.44   -0.15    0.00    0.00       2.94   -1.42   -0.48
#  36    1.18   -0.63    0.05   -0.35   -0.08    0.00    0.00       0.17   -1.77   -0.40
#  37   -0.54   -0.30    0.01    0.11   -0.07    0.00    0.00      -0.79    0.58   -0.39
#  38    3.61   -0.62    0.06   -0.95   -0.06    0.00    0.00       2.04   -3.49   -0.23
#  39    1.69   -1.47    0.23   -0.66   -0.17    0.00    0.00      -0.38   -1.67   -0.43
#  40   -0.25   -0.18    0.02    0.06   -0.04    0.00    0.00      -0.38    0.45   -0.27
#  41   -0.46   -0.22    0.07    0.10   -0.04    0.00    0.00      -0.55    0.66   -0.26
#  42   -0.40   -0.30    0.05    0.36   -0.07    0.00    0.00      -0.36    1.42   -0.28
#  43   -1.22   -0.20    0.01    0.23   -0.05    0.00    0.00      -1.23    1.02   -0.22
#  44   -0.93   -0.45    0.09    0.49   -0.12    0.00    0.00      -0.91    1.17   -0.28
#  45   -1.84   -0.82    1.24    0.88   -0.15    0.00    0.00      -0.69    1.66   -0.28
#  46   -2.76   -0.57    0.18    1.37   -0.15    0.00    0.00      -1.93    2.61   -0.28
#  47   -1.38   -1.45    3.79    0.11   -0.13    0.00    0.00       0.94    0.22   -0.26
#  48   -2.45   -0.83    0.47    0.85   -0.15    0.00    0.00      -2.11    1.62   -0.28
#  49   -3.54   -0.82    0.64    1.88   -0.10    0.00    0.00      -1.93    5.22   -0.28
#  50   -5.65   -0.70    0.21    3.16   -0.12    0.00    0.00      -3.10    5.70   -0.22
#  51   -6.30   -0.80    1.06    2.96   -0.12    0.00    0.00      -3.20    7.08   -0.28
#  52   -3.11   -0.12    0.00    0.77   -0.03    0.00    0.00      -2.49    7.11   -0.28
#  53   -4.51   -0.96    2.49    1.08   -0.05    0.00    0.00      -1.95    4.35   -0.22
#  54   -3.85   -0.27    0.08    0.44   -0.06    0.00    0.00      -3.66    2.01   -0.28
#  55   -0.44   -0.06    0.00    0.12   -0.01    0.00    0.00      -0.40    2.10   -0.22
#  56   -0.84   -0.12    0.01    0.15   -0.03    0.00    0.00      -0.82    1.35   -0.23
#  57   -0.91   -0.15    0.01    0.11   -0.04    0.00    0.00      -0.98    0.64   -0.26
#  58   -1.71   -0.28    0.07    0.24   -0.06    0.00    0.00      -1.74    1.08   -0.27
#  59   -0.94   -0.03    0.00    0.07   -0.01    0.00    0.00      -0.91    1.97   -0.23
#  60   -0.15   -0.02    0.00    0.02   -0.01    0.00    0.00      -0.15    0.66   -0.28
#  61   -0.21   -0.04    0.00    0.03   -0.01    0.00    0.00      -0.22    0.80   -0.26
#  62   -0.44   -0.30    0.03    1.06   -0.10    0.00    0.00       0.26    2.92   -0.28
#  63   -0.27   -0.35    0.23    0.15   -0.06    0.00    0.00      -0.31    0.71   -0.28
#  64   -0.74   -0.38    0.09    1.05   -0.09    0.00    0.00      -0.08    3.12   -0.28
#  65   -4.46   -0.40    0.11    0.78   -0.09    0.00    0.00      -4.06    2.41   -0.28
#  66   -0.31   -0.08    0.00    0.15   -0.02    0.00    0.00      -0.26    2.01   -0.24
#  67   -0.95   -0.09    0.00    0.07   -0.02    0.00    0.00      -1.00    0.75   -0.27
#  68   -3.05   -0.17    0.01    0.32   -0.05    0.00    0.00      -2.94    1.79   -0.28
#  69   -3.16   -0.39    0.10    1.10   -0.08    0.00    0.00      -2.42    3.83   -0.28
#  70   -2.67   -0.62    0.43    1.22   -0.09    0.00    0.00      -1.73    3.97   -0.28

@<TRIPOS>MOLECULE
          T527640        86
   70    75     0     0     0



@<TRIPOS>ATOM
      1 C1          7.3329   -10.9092    94.2642 C.3        1           0.0231
      2 O1          7.1416    -9.8944    95.2519 O.3        1          -0.3145
      3 C2          7.8018   -10.0473    96.4292 C.ar       1           0.1447
      4 C3          8.6211   -11.1470    96.6294 C.ar       1          -0.2057
      5 C4          9.2916   -11.3018    97.8276 C.ar       1          -0.0647
      6 C5          9.1502   -10.3617    98.8333 C.ar       1          -0.1533
      7 C6          8.3376    -9.2619    98.6474 C.ar       1          -0.0656
      8 C7          7.6616    -9.0932    97.4413 C.ar       1          -0.1051
      9 C8          6.7920    -7.9095    97.2338 C.ar       1          -0.0166
     10 C9          5.7079    -7.6812    98.0796 C.ar       1          -0.0592
     11 C10         4.9026    -6.5781    97.8822 C.ar       1          -0.1114
     12 C11         5.1689    -5.7003    96.8471 C.ar       1          -0.0948
     13 C12         6.2436    -5.9217    96.0047 C.ar       1          -0.1653
     14 C13         6.5281    -4.9602    94.8796 C.3        1           0.0437
     15 N1          5.2749    -4.6324    94.1869 N.4        1          -0.5105
     16 H1          4.6320    -4.2072    94.8381 H          1           0.4271
     17 H2          5.4654    -3.9887    93.4336 H          1           0.4196
     18 C14         4.6802    -5.8606    93.6428 C.3        1           0.0247
     19 C15         5.6484    -6.5005    92.6445 C.3        1          -0.1399
     20 C16         5.0010    -7.7532    92.0502 C.3        1           0.0355
     21 N2          3.7484    -7.3870    91.3767 N.3        1          -0.5340
     22 C17         4.0023    -6.4793    90.2500 C.3        1           0.0620
     23 C18         4.4761    -7.2877    89.0405 C.3        1          -0.0324
     24 C19         3.2675    -7.8330    88.2496 C.3        1           0.1212
     25 N3          3.3738    -7.2343    86.9108 N.am       1          -0.5253
     26 C20         4.4828    -6.4394    86.8823 C.ar       1           0.1870
     27 C21         4.8741    -5.7203    85.7478 C.ar       1          -0.1384
     28 C22         4.0440    -5.8377    84.5492 C.2        1          -0.0091
     29 C23         2.9470    -6.6385    84.6173 C.2        1          -0.2121
     30 C24         2.6148    -7.3356    85.7993 C.2        1           0.5462
     31 O2          1.6228    -8.0437    85.8161 O.2        1          -0.5245
     32 C25         6.0282    -4.9340    85.8170 C.ar       1          -0.0140
     33 C26         6.7356    -4.8926    86.9883 C.ar       1          -0.1844
     34 C27         6.3331    -5.6145    88.1110 C.ar       1           0.1751
     35 F1          7.0557    -5.5492    89.2507 F          1          -0.1307
     36 C28         5.1963    -6.3951    88.0586 C.ar       1          -0.1858
     37 C29         2.7867    -6.8002    92.3189 C.3        1           0.0391
     38 C30         3.3739    -5.5214    92.9205 C.3        1          -0.1383
     39 C31         7.0593    -7.0186    96.1962 C.ar       1          -0.0881
     40 H3          6.7511   -10.6656    93.3754 H          1           0.0608
     41 H4          8.3896   -10.9667    94.0023 H          1           0.0588
     42 H5          7.0044   -11.8696    94.6617 H          1           0.1044
     43 H6          8.7353   -11.8839    95.8481 H          1           0.1345
     44 H7          9.9287   -12.1604    97.9800 H          1           0.1317
     45 H8          9.6775   -10.4895    99.7672 H          1           0.1311
     46 H9          8.2291    -8.5308    99.4349 H          1           0.1302
     47 H10         5.4983    -8.3664    98.8876 H          1           0.1348
     48 H11         4.0623    -6.4002    98.5369 H          1           0.1369
     49 H12         4.5359    -4.8384    96.6957 H          1           0.1311
     50 H13         6.9693    -4.0489    95.2832 H          1           0.1371
     51 H14         7.2227    -5.4196    94.1761 H          1           0.1403
     52 H15         4.4777    -6.5589    94.4550 H          1           0.1460
     53 H16         5.8705    -5.7916    91.8468 H          1           0.0955
     54 H17         6.5709    -6.7748    93.1561 H          1           0.1231
     55 H18         5.6817    -8.2064    91.3295 H          1           0.0316
     56 H19         4.7898    -8.4657    92.8475 H          1           0.1046
     57 H20         3.0842    -5.9496    89.9960 H          1           0.0892
     58 H21         4.7715    -5.7594    90.5295 H          1           0.0565
     59 H22         5.1244    -8.1038    89.3594 H          1           0.1042
     60 H23         3.3199    -8.9196    88.1822 H          1           0.0934
     61 H24         2.3360    -7.5282    88.7263 H          1           0.0984
     62 H25         4.2932    -5.3069    83.6422 H          1           0.1554
     63 H26         2.3159    -6.7441    83.7474 H          1           0.1613
     64 H27         6.3572    -4.3675    84.9585 H          1           0.1529
     65 H28         7.6275    -4.2861    87.0440 H          1           0.1469
     66 H29         1.8620    -6.5626    91.7929 H          1           0.0310
     67 H30         2.5779    -7.5136    93.1159 H          1           0.1042
     68 H31         2.6655    -5.0939    93.6300 H          1           0.1237
     69 H32         3.5730    -4.8028    92.1255 H          1           0.0961
     70 H33         7.9005    -7.1885    95.5405 H          1           0.1291
@<TRIPOS>BOND
     1    1    2 1
     2    1   40 1
     3    1   41 1
     4    1   42 1
     5    2    3 1
     6    3    8 ar
     7    3    4 ar
     8    4    5 ar
     9    4   43 1
    10    5    6 ar
    11    5   44 1
    12    6    7 ar
    13    6   45 1
    14    7    8 ar
    15    7   46 1
    16    8    9 1
    17    9   39 ar
    18    9   10 ar
    19   10   11 ar
    20   10   47 1
    21   11   12 ar
    22   11   48 1
    23   12   13 ar
    24   12   49 1
    25   13   14 1
    26   13   39 ar
    27   14   15 1
    28   14   50 1
    29   14   51 1
    30   15   16 1
    31   15   17 1
    32   15   18 1
    33   18   38 1
    34   18   19 1
    35   18   52 1
    36   19   20 1
    37   19   53 1
    38   19   54 1
    39   20   21 1
    40   20   55 1
    41   20   56 1
    42   21   22 1
    43   21   37 1
    44   22   23 1
    45   22   57 1
    46   22   58 1
    47   23   36 1
    48   23   24 1
    49   23   59 1
    50   24   25 1
    51   24   60 1
    52   24   61 1
    53   25   30 am
    54   25   26 1
    55   26   36 ar
    56   26   27 ar
    57   27   28 1
    58   27   32 ar
    59   28   29 2
    60   28   62 1
    61   29   30 1
    62   29   63 1
    63   30   31 2
    64   32   33 ar
    65   32   64 1
    66   33   34 ar
    67   33   65 1
    68   34   35 1
    69   34   36 ar
    70   37   38 1
    71   37   66 1
    72   37   67 1
    73   38   68 1
    74   38   69 1
    75   39   70 1
##########                 Name:              T534100
##########          Protonation:                   94
##########               SMILES:   c1cc(ccc1/C=C/C(=O)NCCCCC[NH+]2CCCN(CC2)C(=O)Nc3ccc(c(c3)Cl)Cl)C(F)(F)F
##########            Long Name:   oromethyl)phenyl]prop-2-enoyl]amino]pentyl]-1,4-diazepan-4-ium-1-carboxamide
##########          FlexRecCode: 1
##########               Number:                  154
##########   Ligand Source File: /raidb/db2/rgc/tcams/tcams-0001219.db2.gz
##########           GlobalRank: 332
##########                 Rank:                    1
##########               Setnum:                  276
##########             Matchnum:                 3830
##########                Cloud:                    1
##########        Electrostatic:           -37.881935
##########        Van der Waals:           -30.195513
##########  Ligand Polar Desolv:             7.381579
########## Ligand Apolar Desolv:            -4.149610
##########      Internal Energy:             0.000000
##########      Receptor Energy: 0.0
########## Receptor Desolvation:             0.000000
########## Receptor Hydrophobic:             0.000000
##########         Total Energy: -64.85
##########        Ligand Charge:             1.000000
##########            Arbitrary:    +999.9990
##########     heavy atom count:   38
##########           pose count:    1
##########        Ligand Energy:             0.000000
# num electro vdwattr vdwrepu polsolv apolsol rdesolv rhydroe totalscore fullpol fullapo
#   1    0.16   -0.28    0.03   -0.07   -0.09    0.00    0.00      -0.25   -0.39   -0.48
#   2   -0.57   -0.33    0.04    0.28   -0.01    0.00    0.00      -0.58    1.56   -0.07
#   3    0.24   -0.62    0.18   -0.17   -0.13    0.00    0.00      -0.51   -0.56   -0.45
#   4    0.15   -0.13    0.00   -0.04   -0.06    0.00    0.00      -0.08   -0.36   -0.45
#   5    0.23   -0.54    0.09   -0.18   -0.06    0.00    0.00      -0.47   -1.08   -0.38
#   6    0.11   -1.07    0.58   -0.12   -0.09    0.00    0.00      -0.60   -0.54   -0.44
#   7    0.15   -0.98    0.26   -0.19   -0.11    0.00    0.00      -0.86   -0.80   -0.45
#   8    0.07   -0.42    0.03   -0.06   -0.07    0.00    0.00      -0.45   -0.36   -0.41
#   9    0.02   -0.41    0.02   -0.08   -0.08    0.00    0.00      -0.53   -0.45   -0.44
#  10    0.21   -0.22    0.01   -0.20   -0.04    0.00    0.00      -0.25   -1.94   -0.43
#  11   -0.33   -0.36    0.04    0.57   -0.08    0.00    0.00      -0.18    4.42   -0.65
#  12    0.16   -0.83    0.20   -0.30    0.08    0.00    0.00      -0.70   -1.55    0.39
#  13    0.87   -0.20    0.01   -0.82    0.20    0.00    0.00       0.05   -9.58    2.33
#  14   -0.51   -0.18    0.01    0.14   -0.04    0.00    0.00      -0.57    1.45   -0.42
#  15    1.83   -0.21    0.01   -0.31   -0.03    0.00    0.00       1.28   -2.52   -0.22
#  16    1.83   -0.29    0.01   -0.53   -0.04    0.00    0.00       0.98   -3.13   -0.22
#  17    4.82   -1.07    0.39   -1.29   -0.06    0.00    0.00       2.79   -4.52   -0.21
#  18    0.55   -1.04    0.27   -0.02   -0.11    0.00    0.00      -0.35   -0.05   -0.34
#  19    9.09   -0.66    0.03   -3.41    0.05    0.00    0.00       5.11  -11.98    0.19
#  20   -7.67   -0.01    0.00    1.56    0.04    0.00    0.00      -6.07   17.87    0.46
#  21    0.19   -0.60    0.03    0.07   -0.12    0.00    0.00      -0.43    0.22   -0.38
#  22    3.45   -0.70    0.06   -1.54   -0.09    0.00    0.00       1.17   -3.90   -0.24
#  23   -2.41   -1.09    0.16    1.14   -0.22    0.00    0.00      -2.42    2.33   -0.46
#  24   11.72   -1.38    0.12   -5.94    0.61    0.00    0.00       5.13  -14.04    1.44
#  25   -2.32   -1.39    0.40    0.74   -0.17    0.00    0.00      -2.74    1.75   -0.40
#  26    1.95   -0.87    0.09   -0.62   -0.15    0.00    0.00       0.40   -1.57   -0.37
#  27   -7.64   -1.73    0.33    4.78   -0.82    0.00    0.00      -5.07   11.63   -1.99
#  28   -0.63   -4.05    4.99   -2.70    0.13    0.00    0.00      -2.27   -6.46    0.32
#  29    9.33   -1.61    0.21   -5.40    0.74    0.00    0.00       3.26  -12.11    1.65
#  30   -1.93   -1.36    0.13    1.12   -0.28    0.00    0.00      -2.32    2.70   -0.67
#  31    1.43   -1.70    0.25   -0.57   -0.20    0.00    0.00      -0.79   -1.12   -0.40
#  32    0.94   -1.56    0.22   -0.31   -0.21    0.00    0.00      -0.92   -0.68   -0.46
#  33    0.40   -1.40    0.27   -0.21   -0.11    0.00    0.00      -1.05   -0.57   -0.30
#  34    0.34   -3.22    0.99   -0.18   -0.40    0.00    0.00      -2.47   -0.42   -0.95
#  35    0.09   -1.23    0.20   -0.10   -0.10    0.00    0.00      -1.13   -0.30   -0.30
#  36    0.20   -1.93    0.40   -0.13   -0.26    0.00    0.00      -1.73   -0.48   -0.95
#  37    1.01   -1.20    0.14   -0.45   -0.15    0.00    0.00      -0.65   -1.36   -0.45
#  38    0.13   -0.26    0.01   -0.10   -0.05    0.00    0.00      -0.27   -0.97   -0.44
#  39    0.08   -0.34    0.02   -0.09   -0.06    0.00    0.00      -0.39   -0.65   -0.44
#  40   -0.21   -0.22    0.08    0.14   -0.04    0.00    0.00      -0.27    0.82   -0.27
#  41   -0.25   -0.29    0.06    0.37   -0.08    0.00    0.00      -0.18    1.34   -0.28
#  42   -0.21   -0.13    0.01    0.10   -0.04    0.00    0.00      -0.27    0.61   -0.26
#  43   -0.13   -0.02    0.00    0.09   -0.01    0.00    0.00      -0.07    3.23   -0.21
#  44   -0.38    0.00    0.00    0.23    0.02    0.00    0.00      -0.14    8.01    0.56
#  45   -0.13   -0.13    0.03    0.03   -0.03    0.00    0.00      -0.23    0.33   -0.28
#  46   -0.29   -0.03    0.00    0.01   -0.01    0.00    0.00      -0.32    0.34   -0.28
#  47   -1.42   -0.08    0.00    0.18   -0.02    0.00    0.00      -1.35    2.25   -0.28
#  48   -0.98   -0.06    0.00    0.13   -0.02    0.00    0.00      -0.93    2.28   -0.28
#  49   -0.77   -0.06    0.00    0.07   -0.01    0.00    0.00      -0.77    1.37   -0.28
#  50   -1.03   -0.08    0.00    0.11   -0.02    0.00    0.00      -1.02    1.47   -0.28
#  51   -4.21   -0.82    1.49    1.06   -0.07    0.00    0.00      -2.55    4.20   -0.28
#  52   -2.95   -0.43    0.16    1.20   -0.06    0.00    0.00      -2.08    4.13   -0.22
#  53   -4.82   -0.83    1.00    1.61   -0.11    0.00    0.00      -3.14    4.17   -0.28
#  54   -2.42   -0.26    0.07    1.12   -0.05    0.00    0.00      -1.55    5.42   -0.26
#  55   -3.43   -0.34    0.06    0.68   -0.07    0.00    0.00      -3.09    2.38   -0.24
#  56   -2.89   -0.15    0.01    0.91   -0.04    0.00    0.00      -2.16    5.77   -0.25
#  57   -4.04   -0.42    0.27    0.86   -0.08    0.00    0.00      -3.41    2.97   -0.28
#  58   -1.18   -0.17    0.01    0.88   -0.04    0.00    0.00      -0.51    5.13   -0.25
#  59   -3.08   -0.45    0.08    0.14   -0.11    0.00    0.00      -3.43    0.30   -0.24
#  60   -1.52   -0.51    0.18    0.60   -0.12    0.00    0.00      -1.37    1.36   -0.28
#  61   -3.36   -0.85    0.53    1.47   -0.09    0.00    0.00      -2.31    3.72   -0.22
#  62   -2.87   -0.71    0.58    1.87   -0.09    0.00    0.00      -1.22    5.65   -0.28
#  63   -5.35   -0.26    0.07    1.61   -0.04    0.00    0.00      -3.98    8.11   -0.20
#  64   -5.32   -0.43    0.07    1.62   -0.12    0.00    0.00      -4.17    3.87   -0.28
#  65   -6.42   -0.04    0.00    4.24    0.17    0.00    0.00      -2.04   11.00    0.44
#  66   -2.64   -0.40    0.05    0.51   -0.11    0.00    0.00      -2.60    1.04   -0.22
#  67   -2.18   -0.31    0.03    0.38   -0.11    0.00    0.00      -2.19    0.96   -0.28
#  68   -0.86   -0.24    0.05    0.68   -0.05    0.00    0.00      -0.41    3.73   -0.28
#  69   -0.16   -0.03    0.00    0.10   -0.01    0.00    0.00      -0.09    3.05   -0.21
#  70   -0.14   -0.06    0.00    0.13   -0.02    0.00    0.00      -0.10    1.61   -0.27

@<TRIPOS>MOLECULE
          T534100        94
   70    72     0     0     0



@<TRIPOS>ATOM
      1 F1         -5.3052   -10.0668    87.2192 F          1          -0.1737
      2 C1         -5.3562   -10.4276    88.5698 C.3        1           0.5064
      3 F2         -6.2825    -9.6168    89.2344 F          1          -0.1752
      4 F3         -5.7450   -11.7669    88.6804 F          1          -0.1740
      5 C2         -3.9947   -10.2470    89.1899 C.ar       1          -0.1696
      6 C3         -3.8014   -10.5493    90.5266 C.ar       1          -0.0697
      7 C4         -2.5584   -10.3873    91.1011 C.ar       1          -0.0931
      8 C5         -1.4916    -9.9160    90.3295 C.ar       1          -0.0492
      9 C6         -0.1614    -9.7405    90.9350 C.2        1          -0.0139
     10 C7          0.9338    -9.6838    90.1510 C.2        1          -0.2118
     11 C8          2.2571    -9.5093    90.7532 C.2        1           0.5488
     12 O1          2.3681    -9.4155    91.9615 O.2        1          -0.5369
     13 N1          3.3520    -9.4527    89.9695 N.am       1          -0.7314
     14 C9          4.6759    -9.2782    90.5721 C.3        1           0.1173
     15 C10         4.9926    -7.7855    90.6839 C.3        1          -0.1324
     16 C11         3.9394    -7.1050    91.5607 C.3        1          -0.1155
     17 C12         4.2560    -5.6124    91.6726 C.3        1          -0.1492
     18 C13         3.2028    -4.9318    92.5493 C.3        1          -0.0195
     19 N2          3.2150    -5.5365    93.8879 N.4        1          -0.3646
     20 H1          3.3370    -6.5322    93.7788 H          1           0.4184
     21 C14         1.9384    -5.3080    94.4912 C.3        1          -0.0083
     22 C15         1.4608    -6.4824    95.3765 C.3        1          -0.1567
     23 C16         2.1678    -6.4396    96.6635 C.3        1           0.1133
     24 N3          3.6524    -6.4002    96.5664 N.am       1          -0.6337
     25 C17         4.2610    -5.1724    96.1676 C.3        1           0.0881
     26 C18         4.4032    -4.9992    94.6325 C.3        1          -0.0593
     27 C19         4.3975    -7.4878    96.8463 C.2        1           0.7010
     28 O2          3.9464    -8.6001    96.6523 O.2        1          -0.5413
     29 N4          5.6427    -7.3426    97.3414 N.am       1          -0.6809
     30 C20         6.6226    -8.3030    97.0640 C.ar       1           0.1674
     31 C21         7.6358    -8.5480    97.9816 C.ar       1          -0.1011
     32 C22         8.6013    -9.4964    97.7063 C.ar       1          -0.0738
     33 C23         8.5605   -10.2024    96.5170 C.ar       1          -0.0412
     34 Cl1         9.7758   -11.3938    96.1742 Cl         1          -0.0344
     35 C24         7.5515    -9.9605    95.6001 C.ar       1          -0.0118
     36 Cl2         7.5032   -10.8481    94.1089 Cl         1          -0.0327
     37 C25         6.5796    -9.0163    95.8738 C.ar       1          -0.1261
     38 C26        -1.6950    -9.6128    88.9796 C.ar       1          -0.1037
     39 C27        -2.9426    -9.7852    88.4183 C.ar       1          -0.0711
     40 H2         -4.6264   -10.9128    91.1213 H          1           0.1433
     41 H3         -2.4092   -10.6232    92.1444 H          1           0.1434
     42 H4         -0.0628    -9.6574    92.0073 H          1           0.1425
     43 H5          0.8353    -9.7670    89.0787 H          1           0.1326
     44 H6          3.2635    -9.5273    89.0065 H          1           0.4025
     45 H7          4.6851    -9.7269    91.5654 H          1           0.0703
     46 H8          5.4262    -9.7630    89.9474 H          1           0.0705
     47 H9          5.9775    -7.6555    91.1324 H          1           0.0751
     48 H10         4.9835    -7.3367    89.6907 H          1           0.0744
     49 H11         2.9544    -7.2349    91.1123 H          1           0.0792
     50 H12         3.9485    -7.5537    92.5539 H          1           0.0801
     51 H13         5.2410    -5.4825    92.1208 H          1           0.0901
     52 H14         4.2469    -5.1636    90.6793 H          1           0.0886
     53 H15         3.4283    -3.8685    92.6289 H          1           0.1317
     54 H16         2.2179    -5.0617    92.1008 H          1           0.1360
     55 H17         1.9983    -4.4096    95.1056 H          1           0.1315
     56 H18         1.2039    -5.1440    93.7028 H          1           0.1387
     57 H19         0.3876    -6.3969    95.5474 H          1           0.1287
     58 H20         1.6736    -7.4266    94.8752 H          1           0.0902
     59 H21         1.8367    -5.5546    97.2069 H          1           0.1140
     60 H22         1.8856    -7.3213    97.2387 H          1           0.0893
     61 H23         3.6619    -4.3475    96.5530 H          1           0.1184
     62 H24         5.2525    -5.1153    96.6169 H          1           0.1114
     63 H25         5.2969    -5.5279    94.3010 H          1           0.1506
     64 H26         4.5139    -3.9392    94.4037 H          1           0.1305
     65 H27         5.8597    -6.5726    97.8898 H          1           0.4064
     66 H28         7.6689    -7.9970    98.9098 H          1           0.1491
     67 H29         9.3893    -9.6868    98.4200 H          1           0.1515
     68 H30         5.7902    -8.8307    95.1606 H          1           0.1442
     69 H31        -0.8759    -9.2484    88.3774 H          1           0.1388
     70 H32        -3.1002    -9.5553    87.3749 H          1           0.1415
@<TRIPOS>BOND
     1    1    2 1
     2    2    3 1
     3    2    4 1
     4    2    5 1
     5    5   39 ar
     6    5    6 ar
     7    6    7 ar
     8    6   40 1
     9    7    8 ar
    10    7   41 1
    11    8    9 1
    12    8   38 ar
    13    9   10 2
    14    9   42 1
    15   10   11 1
    16   10   43 1
    17   11   12 2
    18   11   13 am
    19   13   14 1
    20   13   44 1
    21   14   15 1
    22   14   45 1
    23   14   46 1
    24   15   16 1
    25   15   47 1
    26   15   48 1
    27   16   17 1
    28   16   49 1
    29   16   50 1
    30   17   18 1
    31   17   51 1
    32   17   52 1
    33   18   19 1
    34   18   53 1
    35   18   54 1
    36   19   20 1
    37   19   26 1
    38   19   21 1
    39   21   22 1
    40   21   55 1
    41   21   56 1
    42   22   23 1
    43   22   57 1
    44   22   58 1
    45   23   24 1
    46   23   59 1
    47   23   60 1
    48   24   25 1
    49   24   27 am
    50   25   26 1
    51   25   61 1
    52   25   62 1
    53   26   63 1
    54   26   64 1
    55   27   28 2
    56   27   29 am
    57   29   30 1
    58   29   65 1
    59   30   37 ar
    60   30   31 ar
    61   31   32 ar
    62   31   66 1
    63   32   33 ar
    64   32   67 1
    65   33   34 1
    66   33   35 ar
    67   35   36 1
    68   35   37 ar
    69   37   68 1
    70   38   39 ar
    71   38   69 1
    72   39   70 1
##########                 Name:              T542053
##########          Protonation:                  100
##########               SMILES:   c1ccc2c(c1)c(c[nH]2)[C@@H]3CC[NH+](C3)CCCCCNC(=O)Nc4ccc(c(c4)Cl)Cl
##########            Long Name:   ichlorophenyl)-3-[5-[(3S)-3-(1H-indol-3-yl)pyrrolidin-1-ium-1-yl]pentyl]urea
##########          FlexRecCode: 1
##########               Number:                  337
##########   Ligand Source File: /raidb/db2/rgc/tcams/tcams-0002182.db2.gz
##########           GlobalRank: 333
##########                 Rank:                    1
##########               Setnum:                   50
##########             Matchnum:                 4760
##########                Cloud:                    1
##########        Electrostatic:           -41.215530
##########        Van der Waals:           -29.531622
##########  Ligand Polar Desolv:             8.814453
########## Ligand Apolar Desolv:            -2.905341
##########      Internal Energy:             0.000000
##########      Receptor Energy: 0.0
########## Receptor Desolvation:             0.000000
########## Receptor Hydrophobic:             0.000000
##########         Total Energy: -64.84
##########        Ligand Charge:             1.000000
##########            Arbitrary:    +999.9990
##########     heavy atom count:   31
##########           pose count:    1
##########        Ligand Energy:             0.000000
# num electro vdwattr vdwrepu polsolv apolsol rdesolv rhydroe totalscore fullpol fullapo
#   1    0.48   -3.39    1.08   -0.07   -0.45    0.00    0.00      -2.36   -0.15   -0.95
#   2    0.29   -1.29    0.11   -0.11   -0.12    0.00    0.00      -1.11   -0.26   -0.29
#   3    0.21   -1.67    0.43   -0.11   -0.16    0.00    0.00      -1.30   -0.33   -0.46
#   4    0.49   -1.59    0.43   -0.20   -0.14    0.00    0.00      -1.00   -0.57   -0.40
#   5   -1.71   -1.51    0.22    0.51   -0.27    0.00    0.00      -2.77    1.29   -0.68
#   6    9.20   -1.56    0.18   -3.12    0.79    0.00    0.00       5.48   -6.75    1.70
#   7   -9.44   -1.66    0.24    2.46   -0.89    0.00    0.00      -9.28    5.80   -2.09
#   8    3.44   -1.79    0.53   -0.78    0.13    0.00    0.00       1.54   -2.00    0.34
#   9   14.90   -3.17    1.73   -4.55    1.13    0.00    0.00      10.05   -9.61    2.38
#  10   -3.18   -1.79    0.76    0.89   -0.21    0.00    0.00      -3.54    1.75   -0.42
#  11    3.10   -0.74    0.05   -0.95   -0.09    0.00    0.00       1.37   -2.39   -0.22
#  12    3.60   -1.08    0.13   -1.28   -0.10    0.00    0.00       1.27   -2.94   -0.22
#  13    5.28   -1.17    0.27   -1.62   -0.09    0.00    0.00       2.67   -4.12   -0.22
#  14    0.26   -0.60    0.09    0.04   -0.08    0.00    0.00      -0.29    0.16   -0.32
#  15   10.10   -0.84    0.15   -3.07    0.11    0.00    0.00       6.45  -12.12    0.45
#  16  -16.47   -0.04    0.00    5.21    0.17    0.00    0.00     -11.13   17.32    0.56
#  17    0.15   -0.46    0.05    0.06   -0.09    0.00    0.00      -0.27    0.30   -0.40
#  18    0.76   -0.33    0.02   -0.71   -0.05    0.00    0.00      -0.31   -3.79   -0.27
#  19    0.14   -0.22    0.01   -0.10   -0.03    0.00    0.00      -0.20   -0.65   -0.22
#  20    0.18   -0.31    0.02    0.08   -0.08    0.00    0.00      -0.11    0.47   -0.47
#  21    1.61   -0.65    0.05   -0.69   -0.07    0.00    0.00       0.26   -3.28   -0.35
#  22   -1.81   -2.13    1.07    0.47   -0.28    0.00    0.00      -2.68    1.49   -0.89
#  23   11.25   -2.98    3.71   -2.91    0.40    0.00    0.00       9.46   -8.57    1.17
#  24   -0.43   -1.12    0.21    0.08   -0.21    0.00    0.00      -1.47    0.29   -0.78
#  25    0.55   -1.68    0.62   -0.39   -0.15    0.00    0.00      -1.06   -1.20   -0.48
#  26    0.32   -2.02    1.35   -0.30   -0.15    0.00    0.00      -0.79   -0.97   -0.47
#  27    0.34   -0.62    0.06   -0.27   -0.09    0.00    0.00      -0.57   -1.43   -0.47
#  28    0.19   -0.34    0.01   -0.12   -0.06    0.00    0.00      -0.32   -0.88   -0.47
#  29    0.31   -0.54    0.04   -0.28   -0.08    0.00    0.00      -0.55   -1.59   -0.44
#  30    1.41   -1.91    0.65   -0.37   -0.20    0.00    0.00      -0.42   -0.81   -0.45
#  31    0.09   -1.53    0.29   -0.06   -0.13    0.00    0.00      -1.35   -0.14   -0.29
#  32    0.32   -3.84    1.15   -0.11   -0.54    0.00    0.00      -3.03   -0.20   -0.95
#  33   -0.06   -0.42    0.17    0.21   -0.07    0.00    0.00      -0.17    0.86   -0.28
#  34   -0.56   -0.31    0.14    0.11   -0.05    0.00    0.00      -0.67    0.53   -0.22
#  35   -6.35   -0.03    0.00    2.47    0.22    0.00    0.00      -3.69    6.54    0.59
#  36   -8.49   -0.15    0.03    3.78    0.28    0.00    0.00      -4.55    7.68    0.57
#  37   -1.45   -0.57    0.36    0.20   -0.13    0.00    0.00      -1.59    0.44   -0.28
#  38   -2.09   -1.45    3.10    0.19   -0.15    0.00    0.00      -0.40    0.37   -0.28
#  39   -1.27   -0.14    0.00    0.25   -0.03    0.00    0.00      -1.19    2.01   -0.28
#  40   -1.85   -0.20    0.01    0.46   -0.06    0.00    0.00      -1.65    2.02   -0.28
#  41   -2.63   -0.73    0.37    0.69   -0.13    0.00    0.00      -2.44    1.49   -0.28
#  42   -2.55   -0.29    0.03    0.43   -0.08    0.00    0.00      -2.47    1.44   -0.28
#  43   -2.48   -0.34    0.09    0.94   -0.07    0.00    0.00      -1.85    3.34   -0.25
#  44   -4.60   -1.00    1.12    1.46   -0.12    0.00    0.00      -3.15    3.46   -0.28
#  45   -4.08   -0.20    0.05    0.70   -0.04    0.00    0.00      -3.57    4.87   -0.28
#  46   -2.29   -0.09    0.00    0.34   -0.02    0.00    0.00      -2.06    4.32   -0.27
#  47   -1.26   -0.07    0.00    0.30   -0.02    0.00    0.00      -1.05    4.60   -0.26
#  48   -1.60   -0.36    0.22    1.21   -0.06    0.00    0.00      -0.57    5.99   -0.28
#  49   -0.29   -0.05    0.00    0.07   -0.01    0.00    0.00      -0.27    1.64   -0.28
#  50   -0.24   -0.20    0.04    0.54   -0.05    0.00    0.00       0.08    2.82   -0.27
#  51   -0.57   -0.03    0.00    0.08   -0.01    0.00    0.00      -0.54    2.20   -0.28
#  52   -3.09   -0.12    0.01    0.52   -0.03    0.00    0.00      -2.70    4.86   -0.25
#  53   -1.46   -0.06    0.00    0.26   -0.01    0.00    0.00      -1.28    4.54   -0.26
#  54   -7.56   -0.99    1.26    2.26   -0.09    0.00    0.00      -5.13    6.78   -0.28
#  55  -16.22   -0.08    0.01    2.37    0.21    0.00    0.00     -13.71    6.67    0.59
#  56   -0.85   -0.59    0.56    0.25   -0.08    0.00    0.00      -0.71    0.83   -0.28
#  57   -0.49   -1.01    1.66    0.22   -0.09    0.00    0.00       0.28    0.67   -0.28
#  58   -0.27   -0.09    0.00    0.08   -0.02    0.00    0.00      -0.29    0.98   -0.28
#  59   -0.22   -0.03    0.00    0.08   -0.01    0.00    0.00      -0.19    2.16   -0.28
#  60   -2.29   -0.42    0.12    0.71   -0.10    0.00    0.00      -1.98    1.94   -0.28

@<TRIPOS>MOLECULE
          T542053       100
   60    63     0     0     0



@<TRIPOS>ATOM
      1 Cl1         8.3330   -12.8567    95.7564 Cl         1          -0.0423
      2 C1          7.7182   -11.3143    96.2632 C.ar       1          -0.0469
      3 C2          6.7738   -10.6598    95.4921 C.ar       1          -0.0758
      4 C3          6.2834    -9.4325    95.8927 C.ar       1          -0.1049
      5 C4          6.7382    -8.8547    97.0709 C.ar       1           0.1804
      6 N1          6.2419    -7.6108    97.4789 N.am       1          -0.6830
      7 C5          4.9867    -7.2455    97.1507 C.2        1           0.7052
      8 O1          4.2855    -7.9962    96.5002 O.2        1          -0.5647
      9 N2          4.5090    -6.0480    97.5435 N.am       1          -0.7429
     10 C6          3.1447    -5.6510    97.1867 C.3        1           0.1354
     11 C7          3.0034    -5.6238    95.6634 C.3        1          -0.1326
     12 C8          3.9970    -4.6190    95.0769 C.3        1          -0.1151
     13 C9          3.8557    -4.5917    93.5537 C.3        1          -0.1470
     14 C10         4.1453    -5.9844    92.9898 C.3        1          -0.0093
     15 N3          4.0100    -5.9582    91.5273 N.4        1          -0.3904
     16 H1          4.3951    -5.1065    91.1472 H          1           0.4246
     17 C11         2.5926    -6.1216    91.1259 C.3        1          -0.0119
     18 C12         2.6820    -6.5464    89.6606 C.3        1          -0.1370
     19 C13         4.0529    -7.1801    89.5172 C.3        1          -0.0152
     20 C14         4.6506    -7.1427    90.9183 C.3        1          -0.0103
     21 C15         4.9052    -6.3806    88.5657 C.2        1          -0.1913
     22 C16         5.7181    -5.3614    88.8856 C.2        1           0.0702
     23 N4          6.3295    -4.8812    87.7596 N.pl3      1          -0.5863
     24 C17         5.9141    -5.5978    86.6596 C.ar       1           0.0955
     25 C18         6.2150    -5.5304    85.3030 C.ar       1          -0.1244
     26 C19         5.6209    -6.4107    84.4260 C.ar       1          -0.0905
     27 C20         4.7230    -7.3668    84.8815 C.ar       1          -0.1324
     28 C21         4.4132    -7.4506    86.2096 C.ar       1          -0.0796
     29 C22         5.0083    -6.5720    87.1171 C.ar       1          -0.0977
     30 C23         7.6853    -9.5127    97.8436 C.ar       1          -0.1293
     31 C24         8.1695   -10.7434    97.4413 C.ar       1          -0.0103
     32 Cl2         9.3486   -11.5708    98.4103 Cl         1          -0.0381
     33 H2          6.4201   -11.1091    94.5759 H          1           0.1485
     34 H3          5.5469    -8.9221    95.2898 H          1           0.1502
     35 H4          6.8013    -7.0119    97.9978 H          1           0.4110
     36 H5          5.0685    -5.4492    98.0624 H          1           0.3996
     37 H6          2.4370    -6.3668    97.6045 H          1           0.0717
     38 H7          2.9382    -4.6590    97.5884 H          1           0.0715
     39 H8          3.2099    -6.6157    95.2616 H          1           0.0747
     40 H9          1.9884    -5.3283    95.3979 H          1           0.0748
     41 H10         3.7905    -3.6270    95.4788 H          1           0.0794
     42 H11         5.0120    -4.9146    95.3426 H          1           0.0793
     43 H12         2.8407    -4.2964    93.2881 H          1           0.0874
     44 H13         4.5636    -3.8759    93.1359 H          1           0.0869
     45 H14         5.1607    -6.2797    93.2554 H          1           0.1303
     46 H15         3.4378    -6.7001    93.4076 H          1           0.1308
     47 H16         2.1119    -6.8973    91.7219 H          1           0.1333
     48 H17         2.0557    -5.1776    91.2198 H          1           0.1341
     49 H18         1.9025    -7.2718    89.4277 H          1           0.1180
     50 H19         2.5953    -5.6779    89.0077 H          1           0.0980
     51 H20         3.9620    -8.2086    89.1680 H          1           0.1112
     52 H21         5.7323    -7.0160    90.8756 H          1           0.1310
     53 H22         4.3910    -8.0465    91.4696 H          1           0.1344
     54 H23         5.8672    -4.9771    89.8838 H          1           0.1666
     55 H24         6.9613    -4.1454    87.7391 H          1           0.4227
     56 H25         6.9118    -4.7900    84.9389 H          1           0.1255
     57 H26         5.8554    -6.3565    83.3731 H          1           0.1320
     58 H27         4.2656    -8.0492    84.1805 H          1           0.1282
     59 H28         3.7139    -8.1970    86.5567 H          1           0.1211
     60 H29         8.0405    -9.0654    98.7602 H          1           0.1458
@<TRIPOS>BOND
     1    1    2 1
     2    2   31 ar
     3    2    3 ar
     4    3    4 ar
     5    3   33 1
     6    4    5 ar
     7    4   34 1
     8    5    6 1
     9    5   30 ar
    10    6    7 am
    11    6   35 1
    12    7    8 2
    13    7    9 am
    14    9   10 1
    15    9   36 1
    16   10   11 1
    17   10   37 1
    18   10   38 1
    19   11   12 1
    20   11   39 1
    21   11   40 1
    22   12   13 1
    23   12   41 1
    24   12   42 1
    25   13   14 1
    26   13   43 1
    27   13   44 1
    28   14   15 1
    29   14   45 1
    30   14   46 1
    31   15   16 1
    32   15   20 1
    33   15   17 1
    34   17   18 1
    35   17   47 1
    36   17   48 1
    37   18   19 1
    38   18   49 1
    39   18   50 1
    40   19   20 1
    41   19   21 1
    42   19   51 1
    43   20   52 1
    44   20   53 1
    45   21   29 1
    46   21   22 2
    47   22   23 1
    48   22   54 1
    49   23   24 1
    50   23   55 1
    51   24   29 ar
    52   24   25 ar
    53   25   26 ar
    54   25   56 1
    55   26   27 ar
    56   26   57 1
    57   27   28 ar
    58   27   58 1
    59   28   29 ar
    60   28   59 1
    61   30   31 ar
    62   30   60 1
    63   31   32 1
##########                 Name:              T532119
##########          Protonation:                   25
##########               SMILES:   Cc1cc(ccc1)C(=O)Nc2cc([nH+]cc2)N3CC[C@@H](CC3)[NH+](Cc4ccc(cc4)C#N)C
##########            Long Name:   ethyl-[1-[4-[(3-methylbenzoyl)amino]pyridin-1-ium-2-yl]-4-piperidyl]ammonium
##########          FlexRecCode: 1
##########               Number:                  125
##########   Ligand Source File: /raidb/db2/rgc/tcams/tcams-0000917.db2.gz
##########           GlobalRank: 334
##########                 Rank:                    1
##########               Setnum:                  214
##########             Matchnum:                 1474
##########                Cloud:                    1
##########        Electrostatic:           -41.384964
##########        Van der Waals:           -29.862320
##########  Ligand Polar Desolv:            10.474235
########## Ligand Apolar Desolv:            -4.061495
##########      Internal Energy:             0.000000
##########      Receptor Energy: 0.0
########## Receptor Desolvation:             0.000000
########## Receptor Hydrophobic:             0.000000
##########         Total Energy: -64.83
##########        Ligand Charge:             2.000000
##########            Arbitrary:    +999.9990
##########     heavy atom count:   33
##########           pose count:    1
##########        Ligand Energy:             0.000000
# num electro vdwattr vdwrepu polsolv apolsol rdesolv rhydroe totalscore fullpol fullapo
#   1    1.34   -0.80    0.13   -1.18   -0.15    0.00    0.00      -0.66   -3.47   -0.44
#   2    5.70   -0.42    0.02   -3.80    0.05    0.00    0.00       1.54  -17.52    0.21
#   3   -7.62   -0.01    0.00    2.45    0.06    0.00    0.00      -5.12   22.14    0.54
#   4   -0.11   -0.21    0.01    0.31   -0.05    0.00    0.00      -0.06    2.21   -0.34
#   5    0.34   -0.47    0.03   -0.41   -0.06    0.00    0.00      -0.59   -2.20   -0.34
#   6    0.20   -0.60    0.08   -0.51   -0.07    0.00    0.00      -0.90   -2.64   -0.36
#   7    0.13   -1.16    0.79   -0.57   -0.10    0.00    0.00      -0.90   -2.69   -0.45
#   8   -0.06   -1.53    1.46   -0.47   -0.09    0.00    0.00      -0.67   -2.11   -0.40
#   9    0.15   -1.12    0.30   -0.65   -0.11    0.00    0.00      -1.42   -2.70   -0.45
#  10    0.23   -0.72    0.08   -0.56   -0.10    0.00    0.00      -1.07   -2.56   -0.46
#  11   -0.31   -1.42    0.92    0.93   -0.35    0.00    0.00      -0.23    3.92   -1.46
#  12    0.35   -0.99    0.19   -1.15    0.17    0.00    0.00      -1.43   -4.78    0.71
#  13   -0.38   -0.28    0.01    0.37   -0.03    0.00    0.00      -0.31    2.26   -0.16
#  14    4.39   -0.84    0.16   -2.22   -0.06    0.00    0.00       1.42   -7.72   -0.22
#  15   -2.73   -0.82    0.18    1.00   -0.13    0.00    0.00      -2.51    3.76   -0.48
#  16   14.30   -0.73    0.09   -5.05    0.34    0.00    0.00       8.96  -24.81    1.69
#  17   -1.67   -0.20    0.01    0.52   -0.06    0.00    0.00      -1.40    4.08   -0.48
#  18    2.34   -0.24    0.01   -1.21   -0.03    0.00    0.00       0.87   -8.00   -0.22
#  19  -13.89   -1.26    0.57    4.42   -0.47    0.00    0.00     -10.63   19.09   -2.01
#  20    6.41   -1.03    0.24   -1.97   -0.11    0.00    0.00       3.55   -8.01   -0.43
#  21   -7.96   -0.89    0.11    1.98   -0.18    0.00    0.00      -6.94    7.56   -0.68
#  22   12.22   -0.93    0.06   -5.53    0.51    0.00    0.00       6.34  -17.73    1.64
#  23   -6.93   -1.17    0.20    3.63   -0.19    0.00    0.00      -4.46   12.05   -0.64
#  24    4.78   -0.91    0.12   -2.45    0.08    0.00    0.00       1.63   -9.59    0.33
#  25    1.66   -1.32    0.19   -1.02   -0.14    0.00    0.00      -0.63   -2.93   -0.41
#  26    0.35   -1.26    0.12   -0.58   -0.16    0.00    0.00      -1.53   -1.56   -0.43
#  27    0.68   -1.66    0.40   -0.89   -0.19    0.00    0.00      -1.66   -1.82   -0.40
#  28    0.89   -1.35    0.21   -0.91   -0.12    0.00    0.00      -1.27   -1.56   -0.20
#  29    0.93   -2.20    1.00   -1.01   -0.24    0.00    0.00      -1.52   -1.95   -0.46
#  30    1.96   -1.96    0.31   -1.42   -0.26    0.00    0.00      -1.36   -2.59   -0.47
#  31    1.36   -1.71    0.32   -0.61   -0.21    0.00    0.00      -0.85   -1.30   -0.44
#  32    4.79   -0.90    0.11   -2.06   -0.11    0.00    0.00       1.83   -7.61   -0.41
#  33   -5.38   -1.25    0.30    2.10   -0.27    0.00    0.00      -4.51    7.51   -0.97
#  34   17.09   -1.59    0.63   -5.24    0.26    0.00    0.00      11.15  -19.31    0.96
#  35  -13.05   -0.02    0.00    4.92    0.10    0.00    0.00      -8.05   20.06    0.41
#  36   -2.26   -0.46    0.33    1.54   -0.05    0.00    0.00      -0.91    6.73   -0.22
#  37   -3.73   -0.23    0.02    1.10   -0.06    0.00    0.00      -2.91    3.83   -0.21
#  38   -3.26   -0.36    0.09    2.25   -0.09    0.00    0.00      -1.37    7.33   -0.28
#  39   -0.62   -0.03    0.00    0.35   -0.01    0.00    0.00      -0.31    9.74   -0.20
#  40   -0.37   -0.08    0.01    0.69   -0.02    0.00    0.00       0.23    9.27   -0.28
#  41   -0.31   -0.10    0.01    0.84   -0.03    0.00    0.00       0.42    8.03   -0.28
#  42   -0.26   -0.19    0.05    0.35   -0.04    0.00    0.00      -0.10    2.23   -0.28
#  43   -0.85   -0.25    0.06    0.51   -0.06    0.00    0.00      -0.59    2.35   -0.28
#  44   -1.44   -0.13    0.01    1.17   -0.04    0.00    0.00      -0.44    8.60   -0.28
#  45   -1.48   -0.06    0.00    0.56   -0.02    0.00    0.00      -0.99    9.59   -0.28
#  46   -3.53   -0.57    0.37    1.52   -0.09    0.00    0.00      -2.30    4.92   -0.28
#  47   -3.07   -0.28    0.05    1.56   -0.05    0.00    0.00      -1.79    6.46   -0.22
#  48   -3.78   -0.72    0.53    1.56   -0.06    0.00    0.00      -2.47    4.85   -0.20
#  49   -1.18   -0.11    0.01    0.65   -0.03    0.00    0.00      -0.67    5.45   -0.28
#  50   -1.47   -0.06    0.00    0.28   -0.01    0.00    0.00      -1.26    5.00   -0.20
#  51   -0.92   -0.03    0.00    0.18   -0.01    0.00    0.00      -0.78    5.47   -0.28
#  52   -1.03   -0.04    0.00    0.30   -0.01    0.00    0.00      -0.78    7.35   -0.22
#  53   -1.78   -0.14    0.01    0.77   -0.04    0.00    0.00      -1.18    5.08   -0.28
#  54   -3.77   -0.20    0.03    1.66   -0.04    0.00    0.00      -2.32    9.16   -0.20
#  55   -8.37   -0.01    0.00    2.56    0.08    0.00    0.00      -5.75   14.13    0.46
#  56   -0.66   -0.23    0.02    0.29   -0.06    0.00    0.00      -0.65    1.28   -0.27
#  57   -0.48   -0.54    0.12    0.42   -0.16    0.00    0.00      -0.64    0.75   -0.28
#  58   -0.45   -0.54    0.12    0.44   -0.14    0.00    0.00      -0.57    0.87   -0.28
#  59   -0.63   -0.32    0.02    0.36   -0.13    0.00    0.00      -0.70    0.79   -0.28
#  60   -1.87   -0.58    0.27    0.93   -0.14    0.00    0.00      -1.39    1.89   -0.28
#  61   -3.04   -0.52    0.09    1.96   -0.15    0.00    0.00      -1.66    3.60   -0.28
#  62   -2.20   -0.37    0.07    2.05   -0.07    0.00    0.00      -0.53    6.30   -0.22
#  63   -4.93   -0.15    0.00    0.33   -0.03    0.00    0.00      -4.77    2.43   -0.22
#  64   -6.17   -0.24    0.03    2.17   -0.06    0.00    0.00      -4.28    9.33   -0.28

@<TRIPOS>MOLECULE
          T532119        25
   64    67     0     0     0



@<TRIPOS>ATOM
      1 C1          9.2098    -5.9322    86.4570 C.3        1          -0.0612
      2 N1          9.3581    -6.7842    87.6443 N.4        1          -0.3835
      3 H1          9.9514    -6.3228    88.3174 H          1           0.4248
      4 C2          9.9631    -8.0651    87.2553 C.3        1           0.0371
      5 C3         11.3176    -7.8156    86.6436 C.ar       1          -0.1447
      6 C4         11.6774    -8.4682    85.4777 C.ar       1          -0.0933
      7 C5         12.9157    -8.2445    84.9124 C.ar       1          -0.0676
      8 C6         13.8066    -7.3570    85.5193 C.ar       1           0.0302
      9 C7         13.4368    -6.7016    86.6955 C.ar       1          -0.0677
     10 C8         12.1935    -6.9309    87.2474 C.ar       1          -0.0911
     11 C9         15.0939    -7.1204    84.9383 C.1        1           0.2179
     12 N2         16.1150    -6.9326    84.4774 N.1        1          -0.3607
     13 C10         8.0379    -7.0274    88.2407 C.3        1           0.0245
     14 C11         7.4071    -5.6927    88.6443 C.3        1          -0.1636
     15 C12         6.0164    -5.9474    89.2339 C.3        1           0.1089
     16 N3          6.1387    -6.9140    90.3336 N.pl3      1          -0.6083
     17 C13         6.8109    -8.1950    90.0766 C.3        1           0.1193
     18 C14         8.1927    -7.9151    89.4776 C.3        1          -0.1658
     19 C15         5.6284    -6.6221    91.5935 C.ar       1           0.4618
     20 C16         6.2361    -7.1566    92.7221 C.ar       1          -0.2437
     21 C17         5.7146    -6.8552    93.9756 C.ar       1           0.3203
     22 N4          6.2953    -7.3710    95.1341 N.am       1          -0.6658
     23 C18         6.9195    -8.5650    95.1010 C.2        1           0.5747
     24 O1          6.9765    -9.1924    94.0614 O.2        1          -0.4904
     25 C19         7.5351    -9.1115    96.3286 C.ar       1          -0.1556
     26 C20         7.6722   -10.4916    96.4896 C.ar       1          -0.0490
     27 C21         8.2480   -10.9949    97.6375 C.ar       1          -0.0828
     28 C22         8.3969   -12.4843    97.8131 C.3        1          -0.1249
     29 C23         8.6896   -10.1354    98.6281 C.ar       1          -0.0736
     30 C24         8.5563    -8.7669    98.4751 C.ar       1          -0.1176
     31 C25         7.9871    -8.2500    97.3294 C.ar       1          -0.0905
     32 C26         4.5955    -6.0228    94.0458 C.ar       1          -0.1718
     33 C27         4.0485    -5.5312    92.8808 C.ar       1           0.1702
     34 N5          4.5704    -5.8322    91.7057 N.ar       1          -0.5165
     35 H2          4.1663    -5.4681    90.9026 H          1           0.4375
     36 H3          8.5688    -6.4307    85.7297 H          1           0.1260
     37 H4          8.7609    -4.9818    86.7455 H          1           0.1322
     38 H5         10.1895    -5.7519    86.0144 H          1           0.1283
     39 H6         10.0732    -8.6975    88.1363 H          1           0.1413
     40 H7          9.3222    -8.5637    86.5281 H          1           0.1432
     41 H8         10.9872    -9.1543    85.0093 H          1           0.1436
     42 H9         13.1955    -8.7550    84.0027 H          1           0.1496
     43 H10        14.1212    -6.0140    87.1700 H          1           0.1487
     44 H11        11.9046    -6.4217    88.1549 H          1           0.1412
     45 H12         7.3972    -7.5263    87.5135 H          1           0.1481
     46 H13         8.0347    -5.2045    89.3901 H          1           0.0988
     47 H14         7.3186    -5.0520    87.7670 H          1           0.1184
     48 H15         5.6036    -5.0126    89.6134 H          1           0.0956
     49 H16         5.3610    -6.3522    88.4627 H          1           0.1115
     50 H17         6.9223    -8.7432    91.0122 H          1           0.1171
     51 H18         6.2203    -8.7831    89.3742 H          1           0.1064
     52 H19         8.6635    -8.8563    89.1934 H          1           0.1182
     53 H20         8.8129    -7.4061    90.2154 H          1           0.1000
     54 H21         7.1005    -7.7971    92.6277 H          1           0.1810
     55 H22         6.2499    -6.8704    95.9637 H          1           0.4307
     56 H23         7.3280   -11.1634    95.7174 H          1           0.1410
     57 H24         8.8693   -12.6914    98.7733 H          1           0.0811
     58 H25         7.4135   -12.9537    97.7832 H          1           0.0764
     59 H26         9.0153   -12.8848    97.0099 H          1           0.0737
     60 H27         9.1400   -10.5347    99.5248 H          1           0.1380
     61 H28         8.9024    -8.1016    99.2522 H          1           0.1382
     62 H29         7.8877    -7.1814    97.2092 H          1           0.1233
     63 H30         4.1635    -5.7679    95.0022 H          1           0.1951
     64 H31         3.1826    -4.8874    92.9296 H          1           0.2156
@<TRIPOS>BOND
     1    1    2 1
     2    1   36 1
     3    1   37 1
     4    1   38 1
     5    2    3 1
     6    2    4 1
     7    2   13 1
     8    4    5 1
     9    4   39 1
    10    4   40 1
    11    5   10 ar
    12    5    6 ar
    13    6    7 ar
    14    6   41 1
    15    7    8 ar
    16    7   42 1
    17    8    9 ar
    18    8   11 1
    19    9   10 ar
    20    9   43 1
    21   10   44 1
    22   11   12 3
    23   13   18 1
    24   13   14 1
    25   13   45 1
    26   14   15 1
    27   14   46 1
    28   14   47 1
    29   15   16 1
    30   15   48 1
    31   15   49 1
    32   16   17 1
    33   16   19 1
    34   17   18 1
    35   17   50 1
    36   17   51 1
    37   18   52 1
    38   18   53 1
    39   19   34 ar
    40   19   20 ar
    41   20   21 ar
    42   20   54 1
    43   21   22 1
    44   21   32 ar
    45   22   23 am
    46   22   55 1
    47   23   24 2
    48   23   25 1
    49   25   31 ar
    50   25   26 ar
    51   26   27 ar
    52   26   56 1
    53   27   28 1
    54   27   29 ar
    55   28   57 1
    56   28   58 1
    57   28   59 1
    58   29   30 ar
    59   29   60 1
    60   30   31 ar
    61   30   61 1
    62   31   62 1
    63   32   33 ar
    64   32   63 1
    65   33   34 ar
    66   33   64 1
    67   34   35 1
##########                 Name:              T526123
##########          Protonation:                  100
##########               SMILES:   C[C@@H](CCc1ccccc1)[NH2+]C[C@H](c2ccc3c4c2cccc4C(=O)N3C)O
##########            Long Name:   -hydroxy-2-[methyl(oxo)BLAHyl]ethyl]-[(1S)-1-methyl-3-phenyl-propyl]ammonium
##########          FlexRecCode: 1
##########               Number:                  147
##########   Ligand Source File: /raidb/db2/rgc/tcams/tcams-0000101.db2.gz
##########           GlobalRank: 335
##########                 Rank:                    1
##########               Setnum:                  173
##########             Matchnum:                 4114
##########                Cloud:                    1
##########        Electrostatic:           -44.365154
##########        Van der Waals:           -26.960474
##########  Ligand Polar Desolv:            11.300486
########## Ligand Apolar Desolv:            -4.769921
##########      Internal Energy:             0.000000
##########      Receptor Energy: 0.0
########## Receptor Desolvation:             0.000000
########## Receptor Hydrophobic:             0.000000
##########         Total Energy: -64.8
##########        Ligand Charge:             1.000000
##########            Arbitrary:    +999.9990
##########     heavy atom count:   28
##########           pose count:    1
##########        Ligand Energy:             0.000000
# num electro vdwattr vdwrepu polsolv apolsol rdesolv rhydroe totalscore fullpol fullapo
#   1    8.14   -2.83    1.35   -3.62   -0.11    0.00    0.00       2.93   -6.15   -0.19
#   2   -0.95   -1.20    0.23    1.21   -0.11    0.00    0.00      -0.82    2.71   -0.24
#   3    4.75   -1.45    0.38   -1.81   -0.09    0.00    0.00       1.77   -4.05   -0.21
#   4    2.15   -0.67    0.04   -0.86   -0.07    0.00    0.00       0.60   -2.63   -0.21
#   5    2.17   -1.30    0.17   -0.49   -0.13    0.00    0.00       0.42   -1.38   -0.36
#   6    2.73   -2.31    0.92   -0.91   -0.20    0.00    0.00       0.23   -2.05   -0.45
#   7    2.71   -1.95    0.34   -0.86   -0.24    0.00    0.00      -0.01   -1.67   -0.47
#   8    2.29   -1.63    0.22   -0.76   -0.22    0.00    0.00      -0.11   -1.63   -0.47
#   9    1.36   -1.94    1.23   -0.68   -0.17    0.00    0.00      -0.21   -1.86   -0.47
#  10    1.51   -1.57    0.77   -0.62   -0.14    0.00    0.00      -0.05   -2.07   -0.45
#  11   19.96   -1.79    1.96   -6.30    0.21    0.00    0.00      14.04  -18.77    0.63
#  12  -12.46   -0.01    0.00    2.63    0.06    0.00    0.00      -9.78   18.95    0.44
#  13  -26.65   -0.23    0.17    5.42    0.16    0.00    0.00     -21.12   17.98    0.53
#  14    1.42   -0.81    0.14   -0.41   -0.12    0.00    0.00       0.23   -1.21   -0.36
#  15   -2.40   -0.58    0.03    1.54   -0.04    0.00    0.00      -1.45    4.69   -0.12
#  16    5.33   -0.86    0.17   -4.47    0.42    0.00    0.00       0.59  -17.19    1.62
#  17    1.60   -1.12    0.11   -0.51   -0.12    0.00    0.00      -0.04   -1.51   -0.35
#  18    0.09   -1.34    0.12   -0.35   -0.17    0.00    0.00      -1.65   -0.84   -0.40
#  19    1.49   -2.15    0.72    0.01   -0.23    0.00    0.00      -0.16    0.02   -0.44
#  20    2.07   -3.12    0.87   -1.62   -0.28    0.00    0.00      -2.08   -2.68   -0.46
#  21    0.21   -2.93    0.82   -0.09   -0.29    0.00    0.00      -2.27   -0.15   -0.48
#  22    2.09   -1.92    0.42   -0.82   -0.24    0.00    0.00      -0.47   -1.59   -0.46
#  23   -5.86   -1.95    0.51   -0.30   -0.37    0.00    0.00      -7.96   -0.55   -0.68
#  24    3.95   -3.78    6.81    1.87    0.26    0.00    0.00       9.10    3.17    0.44
#  25    4.33   -1.48    0.16   -1.07    0.93    0.00    0.00       2.87   -2.02    1.75
#  26   -0.68   -1.28    0.16    0.22   -0.33    0.00    0.00      -1.91    0.39   -0.58
#  27   -1.26   -1.44    0.20    0.06   -0.30    0.00    0.00      -2.73    0.16   -0.76
#  28    0.30   -1.84    0.50   -0.44   -0.17    0.00    0.00      -1.65   -1.22   -0.47
#  29    0.14   -1.96    1.15   -0.68   -0.14    0.00    0.00      -1.49   -2.09   -0.42
#  30    1.24   -1.53    0.25   -0.55   -0.17    0.00    0.00      -0.76   -1.29   -0.40
#  31   -3.30   -0.74    0.24    1.87   -0.12    0.00    0.00      -2.05    3.31   -0.21
#  32   -4.84   -1.81    4.50    1.57   -0.17    0.00    0.00      -0.76    2.58   -0.28
#  33   -4.09   -1.31    0.87    0.86   -0.17    0.00    0.00      -3.85    1.40   -0.28
#  34   -4.07   -0.28    0.03    1.64   -0.07    0.00    0.00      -2.75    6.46   -0.28
#  35   -3.91   -0.96    0.82    0.80   -0.13    0.00    0.00      -3.37    1.69   -0.28
#  36   -3.51   -0.70    0.58    1.13   -0.11    0.00    0.00      -2.62    2.94   -0.28
#  37   -1.30   -0.11    0.00    0.46   -0.02    0.00    0.00      -0.96    4.91   -0.22
#  38   -2.18   -0.21    0.01    0.67   -0.06    0.00    0.00      -1.77    3.08   -0.28
#  39   -3.04   -1.18    3.52    1.03   -0.12    0.00    0.00       0.21    2.45   -0.28
#  40   -3.08   -0.51    0.13    0.31   -0.11    0.00    0.00      -3.24    0.81   -0.28
#  41   -2.84   -0.45    0.16    0.18   -0.10    0.00    0.00      -3.05    0.52   -0.28
#  42   -0.81   -0.38    0.18    0.34   -0.07    0.00    0.00      -0.74    1.30   -0.28
#  43   -1.26   -0.22    0.07    0.68   -0.05    0.00    0.00      -0.78    4.07   -0.28
#  44   -3.58   -0.22    0.03    1.24   -0.04    0.00    0.00      -2.57    6.18   -0.22
#  45   -4.79   -0.35    0.06    2.58   -0.11    0.00    0.00      -2.61    6.77   -0.28
#  46   -2.51   -0.23    0.02    1.32   -0.05    0.00    0.00      -1.44    6.03   -0.24
#  47   -6.19   -0.01    0.00    1.45    0.11    0.00    0.00      -4.64   13.42    0.98
#  48   -2.22   -0.83    1.98    2.97   -0.09    0.00    0.00       1.81    8.20   -0.24
#  49   -2.94   -1.19    0.75    2.27   -0.17    0.00    0.00      -1.28    3.65   -0.28
#  50   -3.74   -1.03    0.76    0.37   -0.17    0.00    0.00      -3.81    0.62   -0.28
#  51   -0.76   -0.39    0.08    0.16   -0.12    0.00    0.00      -1.03    0.37   -0.28
#  52   -0.66   -0.47    0.08    0.67   -0.13    0.00    0.00      -0.51    1.45   -0.28
#  53   -0.83   -0.70    0.48   -0.01   -0.16    0.00    0.00      -1.21   -0.02   -0.28
#  54   -0.01   -0.49    0.18    0.69   -0.08    0.00    0.00       0.29    2.34   -0.28
#  55    0.33   -0.69    1.01    1.30   -0.05    0.00    0.00       1.89    5.52   -0.22

@<TRIPOS>MOLECULE
          T526123       100
   55    58     0     0     0



@<TRIPOS>ATOM
      1 C1          5.6397    -3.4008    94.9188 C.3        1          -0.1844
      2 C2          4.6652    -4.5507    94.6558 C.3        1           0.0256
      3 C3          3.3914    -4.0019    94.0101 C.3        1          -0.1423
      4 C4          2.2517    -5.0055    94.1969 C.3        1          -0.0890
      5 C5          0.9969    -4.4650    93.5608 C.ar       1          -0.1025
      6 C6          0.1284    -3.6842    94.3003 C.ar       1          -0.1129
      7 C7         -1.0225    -3.1885    93.7168 C.ar       1          -0.1134
      8 C8         -1.3046    -3.4731    92.3938 C.ar       1          -0.1110
      9 C9         -0.4356    -4.2532    91.6542 C.ar       1          -0.1146
     10 C10         0.7175    -4.7454    92.2364 C.ar       1          -0.1174
     11 N1          5.2909    -5.5261    93.7530 N.4        1          -0.5061
     12 H1          4.5756    -6.0916    93.3212 H          1           0.4258
     13 H2          5.8107    -5.0382    93.0389 H          1           0.4306
     14 C11         6.2012    -6.3881    94.5186 C.3        1          -0.0491
     15 C12         5.4130    -7.1278    95.6013 C.3        1           0.1431
     16 O1          4.1512    -7.5416    95.0733 O.3        1          -0.5449
     17 C13         6.1907    -8.3380    96.0506 C.ar       1          -0.1559
     18 C14         7.1046    -8.2504    97.1141 C.ar       1          -0.0069
     19 C15         7.3948    -7.0919    97.8547 C.ar       1          -0.0902
     20 C16         8.3142    -7.1655    98.8669 C.ar       1          -0.1054
     21 C17         8.9842    -8.3411    99.2041 C.ar       1          -0.0100
     22 C18         8.7265    -9.5036    98.4994 C.ar       1          -0.1423
     23 C19         9.1538   -10.9077    98.4825 C.2        1           0.5690
     24 O2          9.9725   -11.4152    99.2260 O.2        1          -0.4671
     25 N2          8.4742   -11.5417    97.4906 N.am       1          -0.5521
     26 C20         8.6190   -12.9594    97.1507 C.3        1           0.0805
     27 C21         7.6228   -10.6538    96.8453 C.ar       1           0.1868
     28 C22         6.7150   -10.6990    95.8039 C.ar       1          -0.1296
     29 C23         6.0187    -9.5480    95.4355 C.ar       1          -0.0504
     30 C24         7.7828    -9.4180    97.4648 C.ar       1          -0.1133
     31 H3          6.5472    -3.7917    95.3789 H          1           0.0815
     32 H4          5.8905    -2.9145    93.9762 H          1           0.0836
     33 H5          5.1754    -2.6771    95.5887 H          1           0.1076
     34 H6          4.4142    -5.0370    95.5985 H          1           0.1413
     35 H7          3.1235    -3.0562    94.4811 H          1           0.1155
     36 H8          3.5634    -3.8418    92.9458 H          1           0.0920
     37 H9          2.5195    -5.9513    93.7259 H          1           0.0655
     38 H10         2.0795    -5.1658    95.2612 H          1           0.0876
     39 H11         0.3488    -3.4618    95.3338 H          1           0.1229
     40 H12        -1.7016    -2.5790    94.2947 H          1           0.1274
     41 H13        -2.2042    -3.0863    91.9383 H          1           0.1275
     42 H14        -0.6561    -4.4758    90.6206 H          1           0.1267
     43 H15         1.3983    -5.3517    91.6574 H          1           0.1193
     44 H16         6.6654    -7.1119    93.8486 H          1           0.1415
     45 H17         6.9739    -5.7771    94.9851 H          1           0.1445
     46 H18         5.2514    -6.4641    96.4506 H          1           0.1310
     47 H19         3.5961    -6.8127    94.7641 H          1           0.3889
     48 H20         6.9009    -6.1584    97.6290 H          1           0.1333
     49 H21         8.5310    -6.2702    99.4307 H          1           0.1412
     50 H22         9.7013    -8.3440   100.0117 H          1           0.1458
     51 H23         7.9582   -13.2027    96.3187 H          1           0.0750
     52 H24         9.6516   -13.1610    96.8655 H          1           0.0857
     53 H25         8.3550   -13.5690    98.0147 H          1           0.0917
     54 H26         6.5414   -11.6266    95.2786 H          1           0.1400
     55 H27         5.3123    -9.6141    94.6213 H          1           0.1323
@<TRIPOS>BOND
     1    1    2 1
     2    1   31 1
     3    1   32 1
     4    1   33 1
     5    2    3 1
     6    2   11 1
     7    2   34 1
     8    3    4 1
     9    3   35 1
    10    3   36 1
    11    4    5 1
    12    4   37 1
    13    4   38 1
    14    5   10 ar
    15    5    6 ar
    16    6    7 ar
    17    6   39 1
    18    7    8 ar
    19    7   40 1
    20    8    9 ar
    21    8   41 1
    22    9   10 ar
    23    9   42 1
    24   10   43 1
    25   11   12 1
    26   11   13 1
    27   11   14 1
    28   14   15 1
    29   14   44 1
    30   14   45 1
    31   15   16 1
    32   15   17 1
    33   15   46 1
    34   16   47 1
    35   17   29 ar
    36   17   18 ar
    37   18   30 ar
    38   18   19 ar
    39   19   20 ar
    40   19   48 1
    41   20   21 ar
    42   20   49 1
    43   21   22 ar
    44   21   50 1
    45   22   30 ar
    46   22   23 1
    47   23   24 2
    48   23   25 am
    49   25   26 1
    50   25   27 1
    51   26   51 1
    52   26   52 1
    53   26   53 1
    54   27   28 ar
    55   27   30 ar
    56   28   29 ar
    57   28   54 1
    58   29   55 1
##########                 Name:              T536225
##########          Protonation:                   93
##########               SMILES:   c1)CCNC(=O)N([C@H]2CC[NH+](CC2)Cc3ccccc3)Cc4c(cccc4)c5cc(ccc5)C[NH2+]C6CCCC6
##########            Long Name:   )-(phenethylcarbamoyl)amino]methyl]phenyl]phenyl]methyl-cyclopentyl-ammonium
##########          FlexRecCode: 1
##########               Number:                   28
##########   Ligand Source File: /raidb/db2/rgc/tcams/tcams-0001479.db2.gz
##########           GlobalRank: 336
##########                 Rank:                    1
##########               Setnum:                  205
##########             Matchnum:                 2549
##########                Cloud:                    1
##########        Electrostatic:           -37.699261
##########        Van der Waals:           -29.013563
##########  Ligand Polar Desolv:             7.040487
########## Ligand Apolar Desolv:            -5.113633
##########      Internal Energy:             0.000000
##########      Receptor Energy: 0.0
########## Receptor Desolvation:             0.000000
########## Receptor Hydrophobic:             0.000000
##########         Total Energy: -64.79
##########        Ligand Charge:             2.000000
##########            Arbitrary:    +999.9990
##########     heavy atom count:   45
##########           pose count:    1
##########        Ligand Energy:             0.000000
# num electro vdwattr vdwrepu polsolv apolsol rdesolv rhydroe totalscore fullpol fullapo
#   1    0.96   -0.07    0.00   -0.52    0.01    0.00    0.00       0.39  -11.95    0.32
#   2   -0.71   -0.07    0.00    0.68   -0.06    0.00    0.00      -0.16   16.62   -1.35
#   3    0.40   -0.09    0.00   -0.89    0.09    0.00    0.00      -0.49  -18.00    1.74
#   4   -0.08   -0.05    0.00    0.12   -0.02    0.00    0.00      -0.02    3.37   -0.43
#   5    0.04   -0.05    0.00   -0.05   -0.01    0.00    0.00      -0.07   -1.43   -0.23
#   6    0.03   -0.22    0.01   -0.12   -0.03    0.00    0.00      -0.32   -1.39   -0.36
#   7    0.04   -0.43    0.03   -0.32   -0.07    0.00    0.00      -0.75   -1.99   -0.45
#   8    0.03   -1.21    0.27   -0.56   -0.14    0.00    0.00      -1.61   -1.92   -0.47
#   9   -0.03   -2.05    1.11   -0.65   -0.16    0.00    0.00      -1.77   -1.91   -0.47
#  10    0.00   -1.08    0.34   -0.47   -0.11    0.00    0.00      -1.32   -1.96   -0.47
#  11    0.03   -0.33    0.03   -0.25   -0.06    0.00    0.00      -0.58   -1.95   -0.45
#  12    0.95   -0.10    0.00   -0.87    0.06    0.00    0.00       0.05  -17.40    1.20
#  13   -0.12   -0.07    0.00    0.22   -0.02    0.00    0.00       0.01    3.97   -0.31
#  14    0.13   -0.14    0.00   -0.15   -0.01    0.00    0.00      -0.17   -2.79   -0.20
#  15    0.17   -0.17    0.00   -0.27   -0.02    0.00    0.00      -0.29   -4.12   -0.25
#  16    0.12   -0.41    0.02   -0.54   -0.06    0.00    0.00      -0.86   -3.48   -0.42
#  17    0.10   -0.63    0.05   -0.77   -0.10    0.00    0.00      -1.35   -3.66   -0.47
#  18    0.10   -0.40    0.01   -0.48   -0.07    0.00    0.00      -0.84   -2.97   -0.46
#  19    0.06   -0.21    0.00   -0.03   -0.03    0.00    0.00      -0.21   -0.39   -0.37
#  20    0.07   -0.27    0.00   -0.26   -0.04    0.00    0.00      -0.49   -2.38   -0.34
#  21    0.13   -0.32    0.01   -0.50   -0.05    0.00    0.00      -0.74   -3.53   -0.37
#  22    0.19   -0.75    0.08   -1.27   -0.12    0.00    0.00      -1.87   -4.93   -0.47
#  23    0.23   -1.01    0.20   -0.98   -0.13    0.00    0.00      -1.70   -3.41   -0.45
#  24    0.91   -0.66    0.07   -0.92   -0.08    0.00    0.00      -0.69   -4.26   -0.37
#  25   -0.68   -0.56    0.05    0.63   -0.12    0.00    0.00      -0.68    2.15   -0.40
#  26   11.41   -1.45    0.92   -7.76    0.22    0.00    0.00       3.34  -20.42    0.58
#  27   -7.63   -0.02    0.00    5.29    0.14    0.00    0.00      -2.22   20.63    0.56
#  28  -14.29   -0.13    0.06    6.18    0.17    0.00    0.00      -8.01   20.14    0.55
#  29   -0.45   -1.00    0.09    1.41   -0.14    0.00    0.00      -0.08    2.89   -0.29
#  30    3.47   -1.36    0.17   -2.71   -0.13    0.00    0.00      -0.56   -4.48   -0.22
#  31    3.00   -2.20    0.81   -2.82   -0.20    0.00    0.00      -1.42   -4.06   -0.29
#  32    3.06   -2.07    0.40   -2.51   -0.18    0.00    0.00      -1.30   -3.97   -0.29
#  33    3.23   -1.65    0.36   -2.40   -0.14    0.00    0.00      -0.60   -4.52   -0.27
#  34    0.15   -0.44    0.02   -0.52   -0.07    0.00    0.00      -0.87   -2.98   -0.43
#  35   -0.77   -0.12    0.00    0.33   -0.02    0.00    0.00      -0.58    4.42   -0.32
#  36    1.67   -0.13    0.00   -0.41   -0.02    0.00    0.00       1.12   -5.24   -0.20
#  37    0.11   -0.14    0.00    0.03   -0.04    0.00    0.00      -0.04    0.28   -0.38
#  38    5.35   -0.30    0.01   -1.78    0.04    0.00    0.00       3.31  -12.32    0.27
#  39  -10.17   -0.01    0.00    1.83    0.06    0.00    0.00      -8.29   16.75    0.54
#  40   -0.42   -0.38    0.03    0.34   -0.07    0.00    0.00      -0.50    1.77   -0.36
#  41    2.66   -0.67    0.05   -0.75   -0.07    0.00    0.00       1.21   -3.35   -0.33
#  42    2.52   -1.16    0.23   -0.75   -0.13    0.00    0.00       0.70   -2.56   -0.45
#  43    3.38   -1.40    0.23   -1.48   -0.19    0.00    0.00       0.53   -3.63   -0.47
#  44    2.18   -1.30    0.15   -1.18   -0.18    0.00    0.00      -0.33   -3.11   -0.47
#  45    2.21   -0.80    0.03   -1.04   -0.14    0.00    0.00       0.26   -3.41   -0.47
#  46    1.22   -0.76    0.10   -0.47   -0.08    0.00    0.00       0.01   -2.26   -0.36
#  47    0.45   -0.20    0.00   -0.20   -0.04    0.00    0.00       0.01   -1.68   -0.32
#  48    1.22   -0.21    0.01   -0.68   -0.03    0.00    0.00       0.31   -4.81   -0.20
#  49   -0.17    0.00    0.00    0.39    0.01    0.00    0.00       0.23   12.04    0.37
#  50   -0.05   -0.01    0.00    0.00    0.00    0.00    0.00      -0.06    0.25   -0.28
#  51   -0.04   -0.02    0.00    0.02   -0.01    0.00    0.00      -0.05    0.89   -0.28
#  52   -0.03   -0.01    0.00    0.04    0.00    0.00    0.00       0.00    3.00   -0.28
#  53   -0.03   -0.01    0.00    0.04    0.00    0.00    0.00      -0.01    2.70   -0.28
#  54   -0.08   -0.07    0.00    0.18   -0.02    0.00    0.00       0.01    2.65   -0.28
#  55   -0.21   -0.37    0.09    0.41   -0.08    0.00    0.00      -0.15    1.44   -0.28
#  56    0.04   -0.77    0.59    0.48   -0.12    0.00    0.00       0.22    1.10   -0.28
#  57   -0.02   -0.31    0.18    0.38   -0.06    0.00    0.00       0.16    1.67   -0.28
#  58   -0.05   -0.03    0.00    0.09   -0.01    0.00    0.00       0.01    3.14   -0.28
#  59   -0.08   -0.02    0.00    0.12    0.00    0.00    0.00       0.02    5.05   -0.10
#  60   -0.10   -0.03    0.00    0.11   -0.01    0.00    0.00      -0.02    3.32   -0.26
#  61   -0.17   -0.02    0.00    0.10    0.00    0.00    0.00      -0.09    3.54   -0.10
#  62   -0.16   -0.12    0.02    0.39   -0.03    0.00    0.00       0.09    3.42   -0.28
#  63   -0.11   -0.29    0.08    0.72   -0.07    0.00    0.00       0.34    3.02   -0.28
#  64   -0.14   -0.10    0.00    0.43   -0.03    0.00    0.00       0.16    4.16   -0.28
#  65   -0.14   -0.04    0.00    0.21   -0.01    0.00    0.00       0.02    4.88   -0.18
#  66   -0.23   -0.25    0.07    0.88   -0.07    0.00    0.00       0.40    3.61   -0.28
#  67   -1.13   -0.32    0.09    1.62   -0.08    0.00    0.00       0.18    5.58   -0.28
#  68   -3.05   -0.16    0.01    1.14   -0.04    0.00    0.00      -2.10    6.66   -0.24
#  69   -1.98   -0.20    0.03    1.16   -0.05    0.00    0.00      -1.03    6.90   -0.28
#  70   -3.81   -0.35    0.05    2.37   -0.10    0.00    0.00      -1.84    6.77   -0.28
#  71   -2.06   -0.45    0.10    1.91   -0.11    0.00    0.00      -0.61    4.80   -0.27
#  72   -2.47   -0.63    0.21    1.94   -0.16    0.00    0.00      -1.11    3.40   -0.28
#  73   -2.12   -0.74    0.28    0.37   -0.16    0.00    0.00      -2.37    0.65   -0.28
#  74   -2.05   -1.71    2.87    0.41   -0.16    0.00    0.00      -0.65    0.72   -0.28
#  75   -1.79   -0.81    0.44    1.14   -0.15    0.00    0.00      -1.16    2.14   -0.28
#  76   -2.07   -1.22    0.76   -0.03   -0.18    0.00    0.00      -2.74   -0.05   -0.28
#  77   -2.41   -0.97    0.70    1.00   -0.13    0.00    0.00      -1.81    2.10   -0.28
#  78   -1.45   -0.59    0.36    1.88   -0.11    0.00    0.00       0.09    4.74   -0.27
#  79   -0.27   -0.14    0.02    0.80   -0.04    0.00    0.00       0.38    6.16   -0.28
#  80   -0.30   -0.04    0.00    0.07   -0.01    0.00    0.00      -0.29    1.71   -0.28
#  81   -1.05   -0.02    0.00    0.05    0.00    0.00    0.00      -1.02    1.72   -0.11
#  82   -1.46   -0.07    0.00    0.24   -0.02    0.00    0.00      -1.30    3.78   -0.28
#  83   -0.51   -0.04    0.00    0.13    0.00    0.00    0.00      -0.42    3.37   -0.12
#  84   -1.51   -0.05    0.00    0.22   -0.01    0.00    0.00      -1.35    5.22   -0.28
#  85   -0.14   -0.26    0.10    0.80   -0.04    0.00    0.00       0.46    5.05   -0.24
#  86   -1.54   -0.10    0.01    0.61   -0.03    0.00    0.00      -1.06    6.14   -0.27
#  87   -3.89   -0.40    0.17    1.22   -0.07    0.00    0.00      -2.97    4.78   -0.28
#  88   -4.72   -0.39    0.06    0.83   -0.12    0.00    0.00      -4.34    1.89   -0.28
#  89   -3.77   -0.59    0.27    0.54   -0.09    0.00    0.00      -3.64    1.62   -0.28
#  90   -2.67   -0.16    0.00    0.50   -0.04    0.00    0.00      -2.37    3.12   -0.28
#  91   -0.55   -0.19    0.05    0.79   -0.04    0.00    0.00       0.06    5.54   -0.28
#  92   -0.43   -0.06    0.00    0.31    0.00    0.00    0.00      -0.18    4.89   -0.07
#  93   -1.51   -0.06    0.00    0.31   -0.01    0.00    0.00      -1.27    5.33   -0.20
#  94   -1.44   -0.12    0.01    0.73   -0.04    0.00    0.00      -0.86    4.93   -0.28
#  95   -0.42   -0.05    0.00    0.23   -0.01    0.00    0.00      -0.25    4.65   -0.15

@<TRIPOS>MOLECULE
          T536225        93
   95   100     0     0     0



@<TRIPOS>ATOM
      1 O1          5.3108   -10.2143    87.2988 O.2        1          -0.5621
      2 C1          4.3886   -10.3908    88.0714 C.2        1           0.7026
      3 N1          4.1225   -11.6295    88.5313 N.am       1          -0.7400
      4 C2          4.9443   -12.7631    88.1002 C.3        1           0.1355
      5 C3          4.0959   -14.0363    88.0979 C.3        1          -0.0844
      6 C4          3.5734   -14.2943    89.4876 C.ar       1          -0.0951
      7 C5          4.3112   -15.0580    90.3727 C.ar       1          -0.1134
      8 C6          3.8319   -15.2946    91.6476 C.ar       1          -0.1146
      9 C7          2.6150   -14.7673    92.0375 C.ar       1          -0.1126
     10 C8          1.8776   -14.0029    91.1526 C.ar       1          -0.1156
     11 C9          2.3589   -13.7626    89.8792 C.ar       1          -0.1139
     12 N2          3.6360    -9.3471    88.4721 N.am       1          -0.6330
     13 C10         2.2269    -9.5501    88.8178 C.3        1           0.1310
     14 C11         1.3621    -8.7082    87.9151 C.ar       1          -0.1102
     15 C12         1.6086    -8.6729    86.5574 C.ar       1          -0.1395
     16 C13         0.8159    -7.9008    85.7279 C.ar       1          -0.1078
     17 C14        -0.2281    -7.1603    86.2532 C.ar       1          -0.1024
     18 C15        -0.4837    -7.1886    87.6089 C.ar       1          -0.0904
     19 C16         0.3090    -7.9686    88.4487 C.ar       1          -0.0492
     20 C17         0.0357    -8.0070    89.9068 C.ar       1          -0.0429
     21 C18        -0.2667    -9.2162    90.5300 C.ar       1          -0.0891
     22 C19        -0.5195    -9.2462    91.8863 C.ar       1          -0.1045
     23 C20        -0.4732    -8.0787    92.6271 C.ar       1          -0.0838
     24 C21        -0.1742    -6.8759    92.0136 C.ar       1          -0.1509
     25 C22        -0.1256    -5.6082    92.8271 C.3        1           0.0402
     26 N3         -1.4567    -4.9869    92.8456 N.4        1          -0.5050
     27 H1         -1.7397    -4.7701    91.9015 H          1           0.4273
     28 H2         -2.1203    -5.6257    93.2574 H          1           0.4240
     29 C23        -1.4093    -3.7512    93.6384 C.3        1           0.0185
     30 C24        -2.8377    -3.3195    94.0299 C.3        1          -0.1425
     31 C25        -2.8042    -1.7733    93.9438 C.3        1          -0.1260
     32 C26        -1.9101    -1.5193    92.7048 C.3        1          -0.1313
     33 C27        -0.8195    -2.6066    92.7960 C.3        1          -0.1444
     34 C28         0.0861    -6.8351    90.6586 C.ar       1          -0.0788
     35 C29         4.2270    -8.0097    88.5621 C.3        1           0.1579
     36 C30         5.7150    -8.1292    88.9034 C.3        1          -0.1834
     37 C31         5.8664    -8.7818    90.2791 C.3        1          -0.0110
     38 N4          5.1951    -7.9583    91.2919 N.4        1          -0.3751
     39 H3          5.5793    -7.0255    91.2739 H          1           0.4203
     40 C32         5.4079    -8.5485    92.6202 C.3        1           0.0409
     41 C33         5.1693    -7.5025    93.6786 C.ar       1          -0.1581
     42 C34         6.2140    -6.7082    94.1130 C.ar       1          -0.0914
     43 C35         5.9952    -5.7487    95.0839 C.ar       1          -0.1092
     44 C36         4.7318    -5.5834    95.6199 C.ar       1          -0.0830
     45 C37         3.6871    -6.3771    95.1849 C.ar       1          -0.1142
     46 C38         3.9049    -7.3336    94.2109 C.ar       1          -0.0985
     47 C39         3.7556    -7.8984    91.0111 C.3        1          -0.0488
     48 C40         3.5232    -7.2118    89.6635 C.3        1          -0.1573
     49 H4          3.3868   -11.7703    89.1477 H          1           0.3973
     50 H5          5.3221   -12.5765    87.0950 H          1           0.0765
     51 H6          5.7823   -12.8861    88.7863 H          1           0.0747
     52 H7          3.2580   -13.9134    87.4117 H          1           0.0763
     53 H8          4.7073   -14.8797    87.7773 H          1           0.0761
     54 H9          5.2620   -15.4700    90.0682 H          1           0.1204
     55 H10         4.4080   -15.8918    92.3388 H          1           0.1262
     56 H11         2.2402   -14.9528    93.0331 H          1           0.1268
     57 H12         0.9267   -13.5912    91.4571 H          1           0.1257
     58 H13         1.7845   -13.1624    89.1891 H          1           0.1193
     59 H14         1.9693   -10.6014    88.6905 H          1           0.1091
     60 H15         2.0615    -9.2583    89.8548 H          1           0.0945
     61 H16         2.4222    -9.2491    86.1422 H          1           0.1383
     62 H17         1.0126    -7.8755    84.6663 H          1           0.1347
     63 H18        -0.8438    -6.5587    85.6009 H          1           0.1378
     64 H19        -1.2987    -6.6097    88.0180 H          1           0.1342
     65 H20        -0.3034   -10.1281    89.9526 H          1           0.1283
     66 H21        -0.7542   -10.1826    92.3702 H          1           0.1418
     67 H22        -0.6718    -8.1066    93.6883 H          1           0.1379
     68 H23         0.1801    -5.8423    93.8468 H          1           0.1398
     69 H24         0.5913    -4.9181    92.3822 H          1           0.1421
     70 H25        -0.8066    -3.9050    94.5335 H          1           0.1454
     71 H26        -3.5650    -3.7251    93.3266 H          1           0.0852
     72 H27        -3.0682    -3.6401    95.0458 H          1           0.0989
     73 H28        -3.8059    -1.3735    93.7857 H          1           0.0895
     74 H29        -2.3534    -1.3462    94.8396 H          1           0.0857
     75 H30        -2.4875    -1.6341    91.7876 H          1           0.0771
     76 H31        -1.4635    -0.5261    92.7538 H          1           0.0896
     77 H32         0.0690    -2.2045    93.2826 H          1           0.1055
     78 H33        -0.5683    -2.9680    91.7988 H          1           0.0844
     79 H34         0.3243    -5.8960    90.1813 H          1           0.1357
     80 H35         4.1109    -7.4949    87.6082 H          1           0.1043
     81 H36         6.2125    -8.7430    88.1525 H          1           0.1693
     82 H37         6.1656    -7.1368    88.9198 H          1           0.0986
     83 H38         5.4157    -9.7742    90.2614 H          1           0.1219
     84 H39         6.9247    -8.8687    90.5251 H          1           0.1346
     85 H40         4.7141    -9.3767    92.7651 H          1           0.1284
     86 H41         6.4317    -8.9147    92.6955 H          1           0.1391
     87 H42         7.2009    -6.8374    93.6942 H          1           0.1329
     88 H43         6.8114    -5.1286    95.4239 H          1           0.1383
     89 H44         4.5610    -4.8343    96.3790 H          1           0.1367
     90 H45         2.7000    -6.2482    95.6039 H          1           0.1333
     91 H46         3.0878    -7.9513    93.8684 H          1           0.1240
     92 H47         3.3501    -8.9096    90.9779 H          1           0.1483
     93 H48         3.2557    -7.3331    91.7975 H          1           0.1303
     94 H49         3.9283    -6.2003    89.6957 H          1           0.1107
     95 H50         2.4540    -7.1699    89.4560 H          1           0.1099
@<TRIPOS>BOND
     1    1    2 2
     2    2    3 am
     3    2   12 am
     4    3    4 1
     5    3   49 1
     6    4    5 1
     7    4   50 1
     8    4   51 1
     9    5    6 1
    10    5   52 1
    11    5   53 1
    12    6   11 ar
    13    6    7 ar
    14    7    8 ar
    15    7   54 1
    16    8    9 ar
    17    8   55 1
    18    9   10 ar
    19    9   56 1
    20   10   11 ar
    21   10   57 1
    22   11   58 1
    23   12   13 1
    24   12   35 1
    25   13   14 1
    26   13   59 1
    27   13   60 1
    28   14   19 ar
    29   14   15 ar
    30   15   16 ar
    31   15   61 1
    32   16   17 ar
    33   16   62 1
    34   17   18 ar
    35   17   63 1
    36   18   19 ar
    37   18   64 1
    38   19   20 1
    39   20   34 ar
    40   20   21 ar
    41   21   22 ar
    42   21   65 1
    43   22   23 ar
    44   22   66 1
    45   23   24 ar
    46   23   67 1
    47   24   25 1
    48   24   34 ar
    49   25   26 1
    50   25   68 1
    51   25   69 1
    52   26   27 1
    53   26   28 1
    54   26   29 1
    55   29   33 1
    56   29   30 1
    57   29   70 1
    58   30   31 1
    59   30   71 1
    60   30   72 1
    61   31   32 1
    62   31   73 1
    63   31   74 1
    64   32   33 1
    65   32   75 1
    66   32   76 1
    67   33   77 1
    68   33   78 1
    69   34   79 1
    70   35   48 1
    71   35   36 1
    72   35   80 1
    73   36   37 1
    74   36   81 1
    75   36   82 1
    76   37   38 1
    77   37   83 1
    78   37   84 1
    79   38   39 1
    80   38   40 1
    81   38   47 1
    82   40   41 1
    83   40   85 1
    84   40   86 1
    85   41   46 ar
    86   41   42 ar
    87   42   43 ar
    88   42   87 1
    89   43   44 ar
    90   43   88 1
    91   44   45 ar
    92   44   89 1
    93   45   46 ar
    94   45   90 1
    95   46   91 1
    96   47   48 1
    97   47   92 1
    98   47   93 1
    99   48   94 1
   100   48   95 1
##########                 Name:              T530761
##########          Protonation:                   99
##########               SMILES:   c1cc(c2nc(cc(c2c1)OCC[C@H]3CCN(CC3)c4[nH+]ccc(c4)N)C(F)(F)F)C(F)(F)F
##########            Long Name:   bis(trifluoromethyl)-4-quinolyl]oxy]ethyl]-1-piperidyl]pyridin-1-ium-4-amine
##########          FlexRecCode: 1
##########               Number:                  232
##########   Ligand Source File: /raidb/db2/rgc/tcams/tcams-0000787.db2.gz
##########           GlobalRank: 337
##########                 Rank:                    1
##########               Setnum:                  148
##########             Matchnum:                 1663
##########                Cloud:                    1
##########        Electrostatic:           -33.386059
##########        Van der Waals:           -40.893566
##########  Ligand Polar Desolv:            13.812301
########## Ligand Apolar Desolv:            -4.313194
##########      Internal Energy:             0.000000
##########      Receptor Energy: 0.0
########## Receptor Desolvation:             0.000000
########## Receptor Hydrophobic:             0.000000
##########         Total Energy: -64.78
##########        Ligand Charge:             1.000000
##########            Arbitrary:    +999.9990
##########     heavy atom count:   34
##########           pose count:    1
##########        Ligand Energy:             0.000000
# num electro vdwattr vdwrepu polsolv apolsol rdesolv rhydroe totalscore fullpol fullapo
#   1   18.69   -4.76    2.07  -11.35    0.57    0.00    0.00       5.23  -17.94    0.90
#   2   -8.12   -2.32    0.37    4.03   -0.42    0.00    0.00      -6.46    7.04   -0.73
#   3    5.55   -1.91    0.18   -4.22   -0.30    0.00    0.00      -0.71   -6.43   -0.46
#   4   -4.46   -2.50    0.75    3.07   -0.55    0.00    0.00      -3.69    5.42   -0.97
#   5   15.79   -2.52    1.01   -6.29    0.44    0.00    0.00       8.42  -13.68    0.96
#   6  -17.39   -0.07    0.00    5.44    0.17    0.00    0.00     -11.85   12.83    0.41
#   7  -11.46   -1.34    0.13    4.47   -0.83    0.00    0.00      -9.02   10.90   -2.01
#   8    6.20   -2.10    0.45   -3.38   -0.20    0.00    0.00       0.98   -7.13   -0.43
#   9   13.49   -0.95    0.05   -4.64    0.57    0.00    0.00       8.52  -13.73    1.68
#  10   -3.08   -0.92    0.15    1.01   -0.19    0.00    0.00      -3.03    2.50   -0.48
#  11    3.28   -0.80    0.06   -1.00   -0.09    0.00    0.00       1.46   -2.53   -0.22
#  12    1.87   -0.45    0.01   -0.41   -0.04    0.00    0.00       0.98   -1.57   -0.14
#  13    3.40   -0.66    0.08   -0.59   -0.07    0.00    0.00       2.16   -1.83   -0.21
#  14   -1.21   -0.92    0.14    0.15   -0.04    0.00    0.00      -1.88    0.38   -0.09
#  15    4.38   -0.97    0.06   -1.37    0.31    0.00    0.00       2.41   -3.63    0.81
#  16   -2.37   -1.20    0.11    0.84   -0.12    0.00    0.00      -2.74    2.26   -0.32
#  17    1.51   -1.41    0.48   -0.64   -0.12    0.00    0.00      -0.17   -2.10   -0.39
#  18   -0.75   -1.24    0.19    0.11   -0.22    0.00    0.00      -1.92    0.35   -0.70
#  19    3.88   -1.22    0.13   -0.13    0.56    0.00    0.00       3.23   -0.37    1.63
#  20   -2.31   -1.45    0.18    0.15   -0.30    0.00    0.00      -3.73    0.35   -0.71
#  21    2.51   -1.81    0.29   -0.36   -0.19    0.00    0.00       0.43   -0.69   -0.37
#  22    0.44   -3.20    1.27   -0.01   -0.27    0.00    0.00      -1.77   -0.02   -0.44
#  23    2.39   -3.62    1.17   -0.77   -0.29    0.00    0.00      -1.13   -1.24   -0.47
#  24    0.68   -2.57    0.93   -0.13   -0.25    0.00    0.00      -1.33   -0.23   -0.45
#  25    1.39   -1.47    0.15   -0.43   -0.18    0.00    0.00      -0.54   -0.95   -0.40
#  26   -6.33   -1.25    0.31   -0.09   -0.03    0.00    0.00      -7.39   -0.17   -0.06
#  27    1.81   -0.75    0.06   -0.08   -0.20    0.00    0.00       0.85   -0.17   -0.44
#  28    2.15   -1.53    0.60    0.24   -0.26    0.00    0.00       1.21    0.44   -0.47
#  29    1.62   -1.91    2.25    0.24   -0.28    0.00    0.00       1.92    0.40   -0.47
#  30   -2.10   -0.82    0.16    0.46   -0.02    0.00    0.00      -2.31    1.65   -0.07
#  31    0.10   -1.03    0.61   -0.12   -0.11    0.00    0.00      -0.56   -0.51   -0.48
#  32    1.19   -0.61    0.22    0.00   -0.11    0.00    0.00       0.69    0.01   -0.48
#  33    0.48   -1.15    0.32   -0.31   -0.17    0.00    0.00      -0.83   -0.87   -0.46
#  34    3.04   -0.53    0.04   -0.78   -0.06    0.00    0.00       1.72   -3.00   -0.22
#  35   -1.55   -0.42    0.02    0.54   -0.11    0.00    0.00      -1.52    2.32   -0.48
#  36   -9.47   -0.13    0.01    5.75    0.37    0.00    0.00      -3.48    9.23    0.59
#  37   -9.66   -0.07    0.00    5.86    0.37    0.00    0.00      -3.51    9.38    0.59
#  38   -4.16   -0.44    0.05    2.41   -0.15    0.00    0.00      -2.29    4.57   -0.28
#  39   -5.10   -0.81    0.36    4.11   -0.15    0.00    0.00      -1.58    7.91   -0.28
#  40   -2.85   -0.87    0.79    1.57   -0.08    0.00    0.00      -1.44    3.95   -0.20
#  41   -3.29   -0.54    0.23    1.11   -0.08    0.00    0.00      -2.57    2.68   -0.19
#  42   -2.46   -0.28    0.06    0.49   -0.07    0.00    0.00      -2.26    1.86   -0.28
#  43   -2.17   -0.43    0.11    0.40   -0.09    0.00    0.00      -2.18    1.25   -0.28
#  44   -2.27   -0.28    0.02    0.46   -0.09    0.00    0.00      -2.15    1.50   -0.28
#  45   -1.09   -0.13    0.01    0.21   -0.03    0.00    0.00      -1.03    1.77   -0.28
#  46   -2.14   -0.15    0.01    0.16   -0.04    0.00    0.00      -2.15    1.24   -0.28
#  47   -3.72   -0.44    0.27    0.32   -0.08    0.00    0.00      -3.65    1.08   -0.28
#  48   -2.03   -0.32    0.06    0.50   -0.09    0.00    0.00      -1.88    1.51   -0.27
#  49   -1.95   -0.54    0.23    0.60   -0.07    0.00    0.00      -1.74    1.88   -0.22
#  50   -0.43   -0.32    0.18    0.50   -0.04    0.00    0.00      -0.11    2.82   -0.20
#  51   -4.23   -1.20    1.29    0.97   -0.14    0.00    0.00      -3.30    1.61   -0.24
#  52   -2.99   -1.50    1.31    2.11   -0.19    0.00    0.00      -1.27    3.15   -0.28
#  53   -2.14   -0.89    1.37    1.36   -0.13    0.00    0.00      -0.43    2.81   -0.27
#  54   -2.17   -0.34    0.09    0.42   -0.08    0.00    0.00      -2.08    1.53   -0.28
#  55   -1.86   -0.11    0.00    0.24   -0.03    0.00    0.00      -1.75    1.93   -0.22
#  56   -1.05   -0.08    0.00    0.16   -0.02    0.00    0.00      -0.99    2.16   -0.28
#  57   -0.86   -0.16    0.02    0.46   -0.03    0.00    0.00      -0.57    3.35   -0.20

@<TRIPOS>MOLECULE
          T530761        99
   57    60     0     0     0



@<TRIPOS>ATOM
      1 N1         -1.2935    -1.1944    92.1661 N.pl3      1          -0.8158
      2 C1         -1.4256    -2.3654    92.9071 C.ar       1           0.3468
      3 C2         -2.6479    -2.7105    93.4887 C.ar       1          -0.2318
      4 C3         -2.7416    -3.8768    94.2152 C.ar       1           0.1801
      5 N2         -1.6951    -4.6680    94.3674 N.ar       1          -0.5416
      6 H1         -1.7910    -5.4831    94.8845 H          1           0.4348
      7 C4         -0.5175    -4.3790    93.8325 C.ar       1           0.4752
      8 C5         -0.3448    -3.2240    93.0820 C.ar       1          -0.2977
      9 N3          0.5547    -5.2440    94.0210 N.pl3      1          -0.5937
     10 C6          1.0384    -5.5529    95.3734 C.3        1           0.1128
     11 C7          2.5426    -5.2696    95.4359 C.3        1          -0.1330
     12 C8          3.2505    -6.0453    94.3226 C.3        1          -0.0868
     13 C9          4.7572    -5.7918    94.4034 C.3        1          -0.1153
     14 C10         5.1939    -5.7769    95.8696 C.3        1           0.0487
     15 O1          4.8902    -7.0376    96.4700 O.3        1          -0.2921
     16 C11         5.8479    -7.9953    96.4086 C.ar       1           0.2148
     17 C12         5.9036    -8.8812    95.3474 C.ar       1          -0.2501
     18 C13         6.8966    -9.8520    95.3122 C.ar       1           0.1292
     19 N4          7.7944    -9.9588    96.2635 N.ar       1          -0.4509
     20 C14         7.7998    -9.1362    97.3180 C.ar       1           0.1966
     21 C15         8.7681    -9.2620    98.3294 C.ar       1          -0.1667
     22 C16         8.7503    -8.4109    99.3914 C.ar       1          -0.0201
     23 C17         7.7847    -7.4122    99.4956 C.ar       1          -0.1190
     24 C18         6.8309    -7.2604    98.5349 C.ar       1          -0.0442
     25 C19         6.8237    -8.1161    97.4238 C.ar       1          -0.1075
     26 C20         9.8218   -10.3356    98.2383 C.3        1           0.5196
     27 F1          9.6326   -11.0766    97.0669 F          1          -0.1761
     28 F2         11.0894    -9.7441    98.2164 F          1          -0.1657
     29 F3          9.7215   -11.1827    99.3473 F          1          -0.1668
     30 C21         6.9440   -10.8096    94.1495 C.3        1           0.5216
     31 F4          5.9029   -10.5173    93.2619 F          1          -0.1651
     32 F5          8.1703   -10.6805    93.4887 F          1          -0.1543
     33 F6          6.8028   -12.1200    94.6187 F          1          -0.1700
     34 C22         2.7273    -5.5797    92.9620 C.3        1          -0.1404
     35 C23         1.2216    -5.8709    92.8717 C.3        1           0.1013
     36 H2         -0.4407    -0.9695    91.7624 H          1           0.4203
     37 H3         -2.0555    -0.6054    92.0500 H          1           0.4220
     38 H4         -3.5092    -2.0700    93.3703 H          1           0.1752
     39 H5         -3.6843    -4.1481    94.6672 H          1           0.2043
     40 H6          0.6149    -2.9934    92.6439 H          1           0.1714
     41 H7          0.5184    -4.9278    96.0993 H          1           0.1003
     42 H8          0.8551    -6.6042    95.5958 H          1           0.0932
     43 H9          2.7175    -4.2019    95.3032 H          1           0.0774
     44 H10         2.9324    -5.5850    96.4037 H          1           0.0959
     45 H11         3.0547    -7.1109    94.4415 H          1           0.0867
     46 H12         5.2877    -6.5833    93.8742 H          1           0.0812
     47 H13         4.9889    -4.8301    93.9456 H          1           0.0865
     48 H14         6.2673    -5.5962    95.9273 H          1           0.0752
     49 H15         4.6633    -4.9852    96.3987 H          1           0.0722
     50 H16         5.1780    -8.8184    94.5499 H          1           0.1559
     51 H17         9.4963    -8.5116   100.1657 H          1           0.1566
     52 H18         7.7922    -6.7503   100.3488 H          1           0.1509
     53 H19         6.0873    -6.4826    98.6261 H          1           0.1495
     54 H20         2.9004    -4.5091    92.8525 H          1           0.0789
     55 H21         3.2486    -6.1158    92.1689 H          1           0.0921
     56 H22         1.0530    -6.9476    92.8942 H          1           0.0995
     57 H23         0.8225    -5.4557    91.9463 H          1           0.0782
@<TRIPOS>BOND
     1    1    2 1
     2    1   36 1
     3    1   37 1
     4    2    8 ar
     5    2    3 ar
     6    3    4 ar
     7    3   38 1
     8    4    5 ar
     9    4   39 1
    10    5    6 1
    11    5    7 ar
    12    7    8 ar
    13    7    9 1
    14    8   40 1
    15    9   35 1
    16    9   10 1
    17   10   11 1
    18   10   41 1
    19   10   42 1
    20   11   12 1
    21   11   43 1
    22   11   44 1
    23   12   13 1
    24   12   34 1
    25   12   45 1
    26   13   14 1
    27   13   46 1
    28   13   47 1
    29   14   15 1
    30   14   48 1
    31   14   49 1
    32   15   16 1
    33   16   25 ar
    34   16   17 ar
    35   17   18 ar
    36   17   50 1
    37   18   19 ar
    38   18   30 1
    39   19   20 ar
    40   20   25 ar
    41   20   21 ar
    42   21   22 ar
    43   21   26 1
    44   22   23 ar
    45   22   51 1
    46   23   24 ar
    47   23   52 1
    48   24   25 ar
    49   24   53 1
    50   26   27 1
    51   26   28 1
    52   26   29 1
    53   30   31 1
    54   30   32 1
    55   30   33 1
    56   34   35 1
    57   34   54 1
    58   34   55 1
    59   35   56 1
    60   35   57 1
##########                 Name:              T525815
##########          Protonation:                   42
##########               SMILES:   [H]/N=C/1\NC(=[NH2+])N[C@H](N1OCc2ccc(c(c2)Cl)Cl)CC
##########            Long Name:   4-dichlorophenyl)methoxy]-4-ethyl-6-imino-1,3,5-triazinan-2-ylidene]ammonium
##########          FlexRecCode: 1
##########               Number:                   45
##########   Ligand Source File: /raidb/db2/rgc/tcams/tcams-0000059.db2.gz
##########           GlobalRank: 341
##########                 Rank:                    1
##########               Setnum:                   39
##########             Matchnum:                 5206
##########                Cloud:                    1
##########        Electrostatic:           -46.665749
##########        Van der Waals:           -25.373064
##########  Ligand Polar Desolv:            10.666488
########## Ligand Apolar Desolv:            -3.387273
##########      Internal Energy:             0.000000
##########      Receptor Energy: 0.0
########## Receptor Desolvation:             0.000000
########## Receptor Hydrophobic:             0.000000
##########         Total Energy: -64.76
##########        Ligand Charge:             1.000000
##########            Arbitrary:    +999.9990
##########     heavy atom count:   20
##########           pose count:    1
##########        Ligand Energy:             0.000000
# num electro vdwattr vdwrepu polsolv apolsol rdesolv rhydroe totalscore fullpol fullapo
#   1    4.31   -1.03    0.32   -1.44   -0.08    0.00    0.00       2.07   -3.35   -0.19
#   2    2.58   -0.57    0.03   -1.05   -0.08    0.00    0.00       0.91   -3.18   -0.24
#   3   -7.81   -0.67    0.03    3.43   -0.33    0.00    0.00      -5.35    9.32   -0.91
#   4   20.37   -1.53    0.17   -8.42    0.62    0.00    0.00      11.21  -19.96    1.48
#   5  -27.15   -1.61    0.29    9.20   -1.86    0.00    0.00     -21.13   22.43   -4.53
#   6   26.98   -3.64    3.25   -9.97    0.41    0.00    0.00      17.02  -21.50    0.89
#   7  -13.95   -0.07    0.01    7.09    0.26    0.00    0.00      -6.67   16.39    0.60
#   8  -21.41   -0.10    0.01    6.91    0.26    0.00    0.00     -14.33   15.96    0.60
#   9   27.47   -2.11    1.85   -6.12    0.39    0.00    0.00      21.48  -17.94    1.15
#  10  -13.79   -0.75    0.05    3.11   -1.08    0.00    0.00     -12.46   12.64   -4.39
#  11   10.56   -0.64    0.04   -2.91    0.32    0.00    0.00       7.37  -12.79    1.42
#  12    8.12   -0.85    0.05   -3.03    0.28    0.00    0.00       4.57  -10.00    0.93
#  13    0.88   -1.05    0.11   -0.75    0.17    0.00    0.00      -0.64   -2.07    0.48
#  14   -0.99   -0.78    0.06    0.50   -0.05    0.00    0.00      -1.27    1.25   -0.13
#  15    1.03   -1.39    0.15   -0.32   -0.16    0.00    0.00      -0.69   -0.78   -0.39
#  16    1.16   -1.85    0.29   -0.42   -0.24    0.00    0.00      -1.06   -0.78   -0.45
#  17    1.46   -2.22    0.76   -0.51   -0.25    0.00    0.00      -0.75   -0.95   -0.46
#  18    0.16   -1.87    0.58   -0.21   -0.16    0.00    0.00      -1.49   -0.40   -0.30
#  19    0.17   -5.61    2.50   -0.23   -0.58    0.00    0.00      -3.76   -0.38   -0.95
#  20    0.24   -1.50    0.23   -0.22   -0.13    0.00    0.00      -1.38   -0.49   -0.30
#  21    0.25   -3.71    1.33   -0.21   -0.47    0.00    0.00      -2.81   -0.43   -0.95
#  22    0.49   -1.41    0.17   -0.27   -0.16    0.00    0.00      -1.17   -0.74   -0.45
#  23   -1.66   -0.36    0.17    0.73   -0.07    0.00    0.00      -1.18    2.69   -0.27
#  24   -2.63   -0.59    0.49    0.21   -0.12    0.00    0.00      -2.64    0.50   -0.28
#  25   -1.95   -0.26    0.03    0.35   -0.07    0.00    0.00      -1.91    1.34   -0.28
#  26   -0.88   -0.29    0.08    0.36   -0.07    0.00    0.00      -0.81    1.30   -0.27
#  27   -1.04   -0.10    0.00    0.15   -0.03    0.00    0.00      -1.02    1.59   -0.26
#  28   -3.00   -0.30    0.03    1.31   -0.09    0.00    0.00      -2.04    4.00   -0.28
#  29  -13.22   -0.05    0.00    5.50    0.22    0.00    0.00      -7.54   14.59    0.59
#  30  -26.80   -0.18    0.11    3.86    0.17    0.00    0.00     -22.83   13.23    0.59
#  31   -7.54   -0.01    0.00    0.75    0.07    0.00    0.00      -6.74    6.83    0.60
#  32   -1.49   -0.25    0.03    0.43   -0.06    0.00    0.00      -1.34    1.92   -0.27
#  33   -1.57   -0.36    0.13    0.34   -0.08    0.00    0.00      -1.53    1.19   -0.26
#  34   -2.73   -0.41    0.04    1.19   -0.14    0.00    0.00      -2.06    2.32   -0.28
#  35   -2.82   -0.61    0.24    0.71   -0.14    0.00    0.00      -2.62    1.42   -0.28
#  36   -0.48   -0.28    0.05    0.60   -0.07    0.00    0.00      -0.18    2.52   -0.28

@<TRIPOS>MOLECULE
          T525815        42
   36    37     0     0     0



@<TRIPOS>ATOM
      1 C1          0.9322    -6.0479    95.5583 C.3        1          -0.1549
      2 C2          2.1799    -6.8357    95.1537 C.3        1          -0.1567
      3 C3          3.4097    -6.2246    95.8279 C.3        1           0.3922
      4 N1          3.5888    -4.8328    95.3750 N.pl3      1          -0.7234
      5 C4          4.0863    -4.6440    94.0931 C.cat      1           0.7678
      6 N2          3.5789    -3.7606    93.2814 N.pl3      1          -0.7141
      7 H1          2.8319    -3.2119    93.5674 H          1           0.4508
      8 H2          3.9480    -3.6514    92.3911 H          1           0.4488
      9 N3          5.1595    -5.4525    93.7234 N.pl3      1          -0.6957
     10 C5          5.1079    -6.7749    94.1608 C.2        1           0.6105
     11 N4          5.4983    -7.7640    93.4086 N.2        1          -0.6529
     12 N5          4.6174    -6.9782    95.4431 N.pl3      1          -0.5043
     13 O1          5.2496    -7.8703    96.3430 O.3        1          -0.0875
     14 C6          6.6058    -7.5318    96.6401 C.3        1           0.0652
     15 C7          7.3208    -8.7455    97.1755 C.ar       1          -0.0873
     16 C8          8.1283    -8.6350    98.2924 C.ar       1          -0.0741
     17 C9          8.7846    -9.7474    98.7844 C.ar       1          -0.0990
     18 C10         8.6333   -10.9724    98.1596 C.ar       1          -0.0175
     19 Cl1         9.4569   -12.3701    98.7774 Cl         1          -0.0327
     20 C11         7.8244   -11.0831    97.0415 C.ar       1          -0.0359
     21 Cl2         7.6330   -12.6197    96.2567 Cl         1          -0.0351
     22 C12         7.1643    -9.9696    96.5532 C.ar       1          -0.0749
     23 H3          0.0560    -6.4833    95.0779 H          1           0.0553
     24 H4          0.8114    -6.0895    96.6407 H          1           0.0766
     25 H5          1.0404    -5.0097    95.2444 H          1           0.0722
     26 H6          2.0718    -7.8739    95.4676 H          1           0.1040
     27 H7          2.3007    -6.7940    94.0712 H          1           0.0703
     28 H8          3.2881    -6.2493    96.9109 H          1           0.1518
     29 H9          3.3683    -4.0817    95.9479 H          1           0.4514
     30 H10         5.8984    -5.1152    93.1930 H          1           0.4520
     31 H11         5.8369    -7.5905    92.5164 H          1           0.3695
     32 H12         7.1021    -7.1887    95.7324 H          1           0.0760
     33 H13         6.6269    -6.7386    97.3875 H          1           0.0937
     34 H14         8.2466    -7.6789    98.7804 H          1           0.1429
     35 H15         9.4157    -9.6603    99.6564 H          1           0.1500
     36 H16         6.5300   -10.0560    95.6835 H          1           0.1448
@<TRIPOS>BOND
     1    1    2 1
     2    1   23 1
     3    1   24 1
     4    1   25 1
     5    2    3 1
     6    2   26 1
     7    2   27 1
     8    3   12 1
     9    3    4 1
    10    3   28 1
    11    4    5 1
    12    4   29 1
    13    5    6 2
    14    5    9 1
    15    6    7 1
    16    6    8 1
    17    9   10 1
    18    9   30 1
    19   10   11 2
    20   10   12 1
    21   11   31 1
    22   12   13 1
    23   13   14 1
    24   14   15 1
    25   14   32 1
    26   14   33 1
    27   15   22 ar
    28   15   16 ar
    29   16   17 ar
    30   16   34 1
    31   17   18 ar
    32   17   35 1
    33   18   19 1
    34   18   20 ar
    35   20   21 1
    36   20   22 ar
    37   22   36 1
##########                 Name:              T528497
##########          Protonation:                   19
##########               SMILES:   =N[C@]4([C@@](N3)(NC(=N4)N=c5[nH]c6cc(c(cc6[nH]5)C)C)c7ccccn7)c8ccccn8)[nH]2
##########            Long Name:   ,5-d]imidazol-2-yl]-(5,6-dimethyl-1,3-dihydrobenzimidazol-2-ylidene)ammonium
##########          FlexRecCode: 1
##########               Number:                  189
##########   Ligand Source File: /raidb/db2/rgc/tcams/tcams-0000400.db2.gz
##########           GlobalRank: 341
##########                 Rank:                    1
##########               Setnum:                   16
##########             Matchnum:                 3608
##########                Cloud:                    1
##########        Electrostatic:           -23.407362
##########        Van der Waals:           -42.261517
##########  Ligand Polar Desolv:             6.860776
########## Ligand Apolar Desolv:            -5.947056
##########      Internal Energy:             0.000000
##########      Receptor Energy: 0.0
########## Receptor Desolvation:             0.000000
########## Receptor Hydrophobic:             0.000000
##########         Total Energy: -64.76
##########        Ligand Charge:             1.000000
##########            Arbitrary:    +999.9990
##########     heavy atom count:   44
##########           pose count:    1
##########        Ligand Energy:             0.000000
# num electro vdwattr vdwrepu polsolv apolsol rdesolv rhydroe totalscore fullpol fullapo
#   1    1.10   -1.26    0.23   -0.93   -0.09    0.00    0.00      -0.95   -1.78   -0.18
#   2    0.26   -1.48    0.19   -0.45   -0.19    0.00    0.00      -1.67   -0.98   -0.41
#   3    0.29   -1.61    0.29   -0.57   -0.16    0.00    0.00      -1.76   -1.55   -0.45
#   4   -0.54   -1.32    0.16    0.35   -0.27    0.00    0.00      -1.62    1.01   -0.78
#   5   -0.97   -1.43    0.16    0.73   -0.33    0.00    0.00      -1.84    1.72   -0.78
#   6    8.82   -1.49    0.18   -5.37    0.55    0.00    0.00       2.69  -11.66    1.20
#   7  -10.93   -1.08    0.08    5.22   -1.86    0.00    0.00      -8.57   13.76   -4.91
#   8    4.96   -1.08    0.14   -2.95    0.35    0.00    0.00       1.42   -9.52    1.12
#   9   13.50   -1.28    0.16   -4.57    0.42    0.00    0.00       8.23  -11.35    1.04
#  10  -11.68   -0.04    0.00    4.19    0.20    0.00    0.00      -7.34   12.76    0.60
#  11  -15.48   -0.90    0.06    3.02   -1.50    0.00    0.00     -14.81    9.76   -4.84
#  12   10.46   -0.65    0.03   -1.67    0.39    0.00    0.00       8.56   -7.67    1.81
#  13   -6.53   -0.36    0.01    0.58   -0.10    0.00    0.00      -6.39    2.83   -0.47
#  14   13.79   -0.61    0.05   -0.78    0.44    0.00    0.00      12.89   -3.90    2.19
#  15  -21.32   -2.08    1.12    0.96   -1.48    0.00    0.00     -22.80    3.16   -4.86
#  16   29.18   -3.65    2.88   -2.21    0.52    0.00    0.00      26.72   -5.86    1.38
#  17  -11.40   -0.74    0.08    1.20   -0.15    0.00    0.00     -11.00    3.93   -0.48
#  18   23.56   -1.33    0.13   -4.08    0.69    0.00    0.00      18.97  -10.21    1.74
#  19   -2.61   -1.17    0.17    0.31   -0.15    0.00    0.00      -3.45    0.97   -0.48
#  20    3.19   -1.31    0.17   -0.45   -0.17    0.00    0.00       1.43   -1.16   -0.44
#  21    1.93   -1.93    0.50   -0.31   -0.21    0.00    0.00      -0.02   -0.72   -0.48
#  22    3.65   -1.38    0.13   -0.63   -0.21    0.00    0.00       1.57   -1.46   -0.48
#  23   -1.63   -1.53    0.42    0.28   -0.37    0.00    0.00      -2.83    0.73   -0.98
#  24    6.34   -2.10    1.31   -1.29    0.56    0.00    0.00       4.82   -4.06    1.77
#  25   22.66   -3.14    2.58   -1.00    0.73    0.00    0.00      21.83   -2.90    2.14
#  26  -24.22   -2.95    2.69    0.94   -1.55    0.00    0.00     -25.09    2.98   -4.93
#  27   21.66   -2.52    2.13   -0.90    0.33    0.00    0.00      20.71   -3.02    1.12
#  28   -2.17   -1.57    0.54    0.06   -0.23    0.00    0.00      -3.36    0.22   -0.78
#  29    1.86   -1.88    1.05   -0.23   -0.13    0.00    0.00       0.67   -0.78   -0.45
#  30    0.82   -0.91    0.13   -0.16   -0.11    0.00    0.00      -0.24   -0.60   -0.41
#  31    0.60   -0.65    0.12   -0.33   -0.06    0.00    0.00      -0.32   -1.13   -0.19
#  32    0.97   -0.66    0.04   -0.17   -0.10    0.00    0.00       0.07   -0.66   -0.41
#  33    0.89   -0.47    0.04   -0.29   -0.05    0.00    0.00       0.12   -1.12   -0.19
#  34    2.07   -0.84    0.07   -0.23   -0.13    0.00    0.00       0.94   -0.80   -0.45
#  35   -2.20   -1.25    0.31    0.11   -0.23    0.00    0.00      -3.25    0.38   -0.78
#  36   18.29   -1.88    0.58   -1.21    0.37    0.00    0.00      16.15   -3.89    1.20
#  37   -1.48   -0.53    0.03    0.16   -0.08    0.00    0.00      -1.89    0.94   -0.46
#  38    0.63   -0.36    0.01   -0.16   -0.06    0.00    0.00       0.05   -1.16   -0.44
#  39    0.14   -0.46    0.02   -0.16   -0.10    0.00    0.00      -0.56   -0.77   -0.48
#  40    0.34   -1.12    0.17   -0.44   -0.16    0.00    0.00      -1.20   -1.33   -0.48
#  41   -0.72   -1.57    0.35    0.10   -0.38    0.00    0.00      -2.21    0.26   -0.98
#  42    3.19   -1.06    0.23   -0.68    0.53    0.00    0.00       2.22   -2.29    1.80
#  43    1.11   -1.84    0.49   -0.69   -0.22    0.00    0.00      -1.14   -1.41   -0.45
#  44    0.37   -1.77    0.54   -0.54   -0.20    0.00    0.00      -1.60   -1.10   -0.41
#  45    1.05   -1.59    0.52   -1.10   -0.10    0.00    0.00      -1.23   -1.92   -0.18
#  46   -0.81   -0.54    0.31    0.43   -0.11    0.00    0.00      -0.72    1.10   -0.28
#  47   -0.83   -0.34    0.04    0.42   -0.12    0.00    0.00      -0.83    1.01   -0.28
#  48   -0.69   -0.52    0.13    0.58   -0.12    0.00    0.00      -0.62    1.09   -0.23
#  49    0.00   -0.45    0.17    0.62   -0.07    0.00    0.00       0.27    2.33   -0.28
#  50   -7.51   -0.04    0.00    5.11    0.23    0.00    0.00      -2.20   13.24    0.60
#  51   -3.00   -0.02    0.00    1.08    0.06    0.00    0.00      -1.87    6.99    0.40
#  52  -21.07   -0.16    0.03    1.81    0.27    0.00    0.00     -19.13    3.90    0.58
#  53  -15.07   -0.03    0.00    3.18    0.25    0.00    0.00     -11.67    7.77    0.60
#  54   -3.51   -0.25    0.02    0.23   -0.07    0.00    0.00      -3.58    0.81   -0.23
#  55   -5.03   -0.84    0.72    0.60   -0.12    0.00    0.00      -4.67    1.43   -0.28
#  56   -3.48   -0.29    0.03    0.57   -0.09    0.00    0.00      -3.26    1.84   -0.28
#  57   -2.08   -0.35    0.12    0.60   -0.08    0.00    0.00      -1.79    2.12   -0.28
#  58  -16.44   -0.03    0.00    0.46    0.09    0.00    0.00     -15.93    1.96    0.40
#  59   -2.32   -1.32    3.48    0.40   -0.09    0.00    0.00       0.15    1.30   -0.28
#  60   -0.23   -0.10    0.00    0.07   -0.03    0.00    0.00      -0.28    0.75   -0.28
#  61   -0.28   -0.40    0.13    0.34   -0.08    0.00    0.00      -0.29    0.94   -0.21
#  62   -0.24   -0.17    0.04    0.12   -0.04    0.00    0.00      -0.29    0.86   -0.28
#  63   -0.98   -0.26    0.06    0.16   -0.06    0.00    0.00      -1.08    0.76   -0.28
#  64   -0.78   -0.18    0.02    0.17   -0.06    0.00    0.00      -0.84    0.82   -0.28
#  65   -0.16   -0.06    0.00    0.06   -0.01    0.00    0.00      -0.18    0.92   -0.21
#  66   -3.38   -0.18    0.01    0.37   -0.06    0.00    0.00      -3.24    1.67   -0.28
#  67  -11.44   -0.03    0.00    1.06    0.15    0.00    0.00     -10.26    4.15    0.60
#  68   -0.70   -0.05    0.00    0.09   -0.01    0.00    0.00      -0.67    1.76   -0.24
#  69   -0.23   -0.06    0.00    0.12   -0.02    0.00    0.00      -0.18    2.12   -0.28
#  70   -0.31   -0.35    0.12    0.50   -0.09    0.00    0.00      -0.12    1.62   -0.28
#  71   -1.82   -0.57    0.22    0.39   -0.12    0.00    0.00      -1.91    0.88   -0.28
#  72   -2.73   -0.40    0.06    1.74   -0.12    0.00    0.00      -1.45    3.92   -0.28
#  73   -0.97   -0.76    1.14    0.63   -0.15    0.00    0.00      -0.12    1.18   -0.28
#  74   -0.51   -0.62    0.20    0.80   -0.16    0.00    0.00      -0.29    1.39   -0.28
#  75   -0.61   -0.50    0.14    0.46   -0.10    0.00    0.00      -0.61    1.03   -0.23

@<TRIPOS>MOLECULE
          T528497        19
   75    82     0     0     0



@<TRIPOS>ATOM
      1 C1          8.0023   -12.8852    96.5674 C.3        1          -0.1280
      2 C2          7.7696   -11.4182    96.8219 C.ar       1          -0.0418
      3 C3          6.9377   -10.6987    95.9864 C.ar       1          -0.0810
      4 C4          6.7227    -9.3484    96.2205 C.ar       1           0.0768
      5 C5          7.3488    -8.7222    97.3003 C.ar       1           0.0807
      6 N1          6.9541    -7.3871    97.2880 N.pl3      1          -0.5627
      7 C6          6.1116    -7.2007    96.2323 C.cat      1           0.6579
      8 N2          5.9585    -8.3830    95.5706 N.pl3      1          -0.5250
      9 N3          5.5351    -6.0564    95.9030 N.pl3      1          -0.5729
     10 H1          5.7004    -5.2603    96.4318 H          1           0.4549
     11 C7          4.7189    -5.9970    94.8335 C.2        1           0.5978
     12 N4          4.4524    -7.0285    94.0878 N.2        1          -0.5961
     13 C8          3.5364    -6.6485    93.0048 C.3        1           0.3539
     14 N5          4.2449    -6.6891    91.7193 N.2        1          -0.6493
     15 C9          4.4056    -5.4845    91.2565 C.2        1           0.6210
     16 N6          3.8854    -4.5021    92.0632 N.pl3      1          -0.7243
     17 C10         3.2808    -5.1382    93.2436 C.3        1           0.4080
     18 N7          4.0891    -4.8428    94.4365 N.pl3      1          -0.7188
     19 C11         1.8214    -4.8013    93.4109 C.ar       1           0.1215
     20 C12         1.2564    -4.8198    94.6722 C.ar       1          -0.1290
     21 C13        -0.0870    -4.5084    94.8152 C.ar       1          -0.0691
     22 C14        -0.8149    -4.1888    93.6791 C.ar       1          -0.1531
     23 C15        -0.1817    -4.1910    92.4510 C.ar       1           0.1013
     24 N8          1.0996    -4.4873    92.3532 N.ar       1          -0.4624
     25 N9          5.0271    -5.2235    90.0907 N.2        1          -0.6184
     26 C16         6.2868    -5.5881    89.9166 C.2        1           0.6590
     27 N10         7.0571    -6.2365    90.8359 N.pl3      1          -0.6050
     28 C17         8.3170    -6.4439    90.2805 C.ar       1           0.0800
     29 C18         9.4737    -7.0431    90.7583 C.ar       1          -0.0991
     30 C19        10.5983    -7.1023    89.9597 C.ar       1          -0.0653
     31 C20        11.8543    -7.7534    90.4793 C.3        1          -0.1194
     32 C21        10.5770    -6.5665    88.6833 C.ar       1          -0.0673
     33 C22        11.8099    -6.6367    87.8193 C.3        1          -0.1198
     34 C23         9.4309    -5.9685    88.1984 C.ar       1          -0.0952
     35 C24         8.2955    -5.9032    88.9937 C.ar       1           0.0829
     36 N11         7.0216    -5.3809    88.7869 N.pl3      1          -0.5932
     37 C25         2.2684    -7.4627    93.0067 C.ar       1           0.1625
     38 C26         1.6139    -7.7105    91.8146 C.ar       1          -0.1339
     39 C27         0.4481    -8.4607    91.8273 C.ar       1          -0.0759
     40 C28        -0.0179    -8.9357    93.0440 C.ar       1          -0.1625
     41 C29         0.6902    -8.6476    94.1952 C.ar       1           0.1020
     42 N12         1.7989    -7.9351    94.1447 N.ar       1          -0.4585
     43 C30         8.1825    -9.4536    98.1336 C.ar       1          -0.0858
     44 C31         8.3859   -10.7987    97.8952 C.ar       1          -0.0406
     45 C32         9.2873   -11.5940    98.8042 C.3        1          -0.1277
     46 H2          7.4398   -13.1949    95.6867 H          1           0.0872
     47 H3          9.0650   -13.0608    96.3999 H          1           0.0790
     48 H4          7.6707   -13.4609    97.4314 H          1           0.0837
     49 H5          6.4557   -11.1866    95.1521 H          1           0.1503
     50 H6          7.2308    -6.7067    97.9216 H          1           0.4578
     51 H7          5.4112    -8.5267    94.7827 H          1           0.4696
     52 H8          3.9124    -3.5489    91.8846 H          1           0.4221
     53 H9          4.1659    -3.9779    94.8688 H          1           0.4230
     54 H10         1.8537    -5.0740    95.5353 H          1           0.1367
     55 H11        -0.5555    -4.5151    95.7884 H          1           0.1419
     56 H12        -1.8636    -3.9413    93.7533 H          1           0.1415
     57 H13        -0.7417    -3.9431    91.5612 H          1           0.1595
     58 H14         6.7759    -6.5066    91.7241 H          1           0.4521
     59 H15         9.4943    -7.4623    91.7535 H          1           0.1322
     60 H16        12.6307    -7.7062    89.7156 H          1           0.0774
     61 H17        12.1919    -7.2295    91.3734 H          1           0.0774
     62 H18        11.6487    -8.7953    90.7245 H          1           0.0685
     63 H19        11.6061    -6.1675    86.8567 H          1           0.0776
     64 H20        12.6292    -6.1137    88.3122 H          1           0.0705
     65 H21        12.0857    -7.6797    87.6639 H          1           0.0768
     66 H22         9.4181    -5.5517    87.2021 H          1           0.1368
     67 H23         6.7109    -4.9431    87.9790 H          1           0.4454
     68 H24         2.0056    -7.3244    90.8852 H          1           0.1255
     69 H25        -0.0846    -8.6699    90.9115 H          1           0.1352
     70 H26        -0.9230    -9.5230    93.0912 H          1           0.1375
     71 H27         0.3339    -9.0137    95.1466 H          1           0.1560
     72 H28         8.6684    -8.9729    98.9697 H          1           0.1501
     73 H29         9.6794   -10.9441    99.5864 H          1           0.0870
     74 H30         8.7202   -12.4069    99.2577 H          1           0.0788
     75 H31        10.1141   -12.0063    98.2259 H          1           0.0839
@<TRIPOS>BOND
     1    1    2 1
     2    1   46 1
     3    1   47 1
     4    1   48 1
     5    2   44 ar
     6    2    3 ar
     7    3    4 ar
     8    3   49 1
     9    4    8 1
    10    4    5 ar
    11    5    6 1
    12    5   43 ar
    13    6    7 1
    14    6   50 1
    15    7    8 1
    16    7    9 2
    17    8   51 1
    18    9   10 1
    19    9   11 1
    20   11   18 1
    21   11   12 2
    22   12   13 1
    23   13   17 1
    24   13   14 1
    25   13   37 1
    26   14   15 2
    27   15   16 1
    28   15   25 1
    29   16   17 1
    30   16   52 1
    31   17   18 1
    32   17   19 1
    33   18   53 1
    34   19   24 ar
    35   19   20 ar
    36   20   21 ar
    37   20   54 1
    38   21   22 ar
    39   21   55 1
    40   22   23 ar
    41   22   56 1
    42   23   24 ar
    43   23   57 1
    44   25   26 2
    45   26   36 1
    46   26   27 1
    47   27   28 1
    48   27   58 1
    49   28   35 ar
    50   28   29 ar
    51   29   30 ar
    52   29   59 1
    53   30   31 1
    54   30   32 ar
    55   31   60 1
    56   31   61 1
    57   31   62 1
    58   32   33 1
    59   32   34 ar
    60   33   63 1
    61   33   64 1
    62   33   65 1
    63   34   35 ar
    64   34   66 1
    65   35   36 1
    66   36   67 1
    67   37   42 ar
    68   37   38 ar
    69   38   39 ar
    70   38   68 1
    71   39   40 ar
    72   39   69 1
    73   40   41 ar
    74   40   70 1
    75   41   42 ar
    76   41   71 1
    77   43   44 ar
    78   43   72 1
    79   44   45 1
    80   45   73 1
    81   45   74 1
    82   45   75 1
##########                 Name:              T368847
##########          Protonation:                   95
##########               SMILES:   Cc1ccc(cc1)NC(=O)N2CCC[NH+](CC2)CCCCCNC(=O)/C=C/c3ccc(c(c3)Cl)Cl
##########            Long Name:   enyl)prop-2-enoyl]amino]pentyl]-N-(p-tolyl)-1,4-diazepan-4-ium-1-carboxamide
##########          FlexRecCode: 1
##########               Number:                  173
##########   Ligand Source File: /raidb/db2/rgc/tcams/tcams-0001671.db2.gz
##########           GlobalRank: 341
##########                 Rank:                    1
##########               Setnum:                  118
##########             Matchnum:                   69
##########                Cloud:                    1
##########        Electrostatic:           -43.599072
##########        Van der Waals:           -25.450335
##########  Ligand Polar Desolv:             7.470149
########## Ligand Apolar Desolv:            -3.182546
##########      Internal Energy:             0.000000
##########      Receptor Energy: 0.0
########## Receptor Desolvation:             0.000000
########## Receptor Hydrophobic:             0.000000
##########         Total Energy: -64.76
##########        Ligand Charge:             1.000000
##########            Arbitrary:    +999.9990
##########     heavy atom count:   35
##########           pose count:    1
##########        Ligand Energy:             0.000000
# num electro vdwattr vdwrepu polsolv apolsol rdesolv rhydroe totalscore fullpol fullapo
#   1    1.17   -0.99    0.10   -0.38   -0.10    0.00    0.00      -0.20   -0.73   -0.20
#   2    0.90   -1.54    0.29   -0.35   -0.18    0.00    0.00      -0.87   -0.81   -0.41
#   3    0.58   -1.52    0.23   -0.35   -0.17    0.00    0.00      -1.22   -0.92   -0.45
#   4    0.64   -1.87    0.48   -0.50   -0.17    0.00    0.00      -1.43   -1.37   -0.46
#   5   -1.44   -1.74    0.32    0.60   -0.30    0.00    0.00      -2.56    1.36   -0.68
#   6    8.95   -1.68    0.22   -4.02    0.72    0.00    0.00       4.20   -9.26    1.67
#   7   -7.33   -1.46    0.27    3.61   -0.76    0.00    0.00      -5.66    9.62   -2.02
#   8   -0.81   -4.04    6.63   -2.20    0.13    0.00    0.00      -0.28   -5.47    0.32
#   9   11.73   -0.82    0.03   -4.05    0.45    0.00    0.00       7.34  -12.88    1.44
#  10   -1.79   -0.48    0.01    0.55   -0.13    0.00    0.00      -1.83    1.93   -0.46
#  11    2.91   -0.38    0.01   -0.94   -0.05    0.00    0.00       1.54   -4.26   -0.24
#  12    0.18   -0.32    0.01   -0.06   -0.07    0.00    0.00      -0.26   -0.30   -0.36
#  13   10.84   -0.90    0.31   -2.59    0.04    0.00    0.00       7.70  -11.15    0.18
#  14  -17.32   -0.04    0.00    3.92    0.10    0.00    0.00     -13.33   16.82    0.45
#  15    0.52   -0.55    0.11   -0.02   -0.07    0.00    0.00      -0.01   -0.11   -0.34
#  16    3.44   -0.59    0.09   -0.95   -0.05    0.00    0.00       1.93   -4.08   -0.20
#  17    1.73   -0.29    0.01   -0.48   -0.04    0.00    0.00       0.94   -2.97   -0.22
#  18    0.67   -0.40    0.03   -0.47   -0.04    0.00    0.00      -0.22   -2.40   -0.22
#  19   -0.48   -0.37    0.03    0.25   -0.08    0.00    0.00      -0.64    1.40   -0.43
#  20    7.96   -0.80    0.13   -2.02    0.50    0.00    0.00       5.76   -9.37    2.33
#  21   -4.63   -0.64    0.14    0.73   -0.11    0.00    0.00      -4.52    4.31   -0.65
#  22    1.90   -0.32    0.03   -0.15    0.05    0.00    0.00       1.51   -1.26    0.39
#  23    1.57   -0.57    0.04   -0.40   -0.09    0.00    0.00       0.56   -1.92   -0.43
#  24    0.02   -0.32    0.01   -0.06   -0.06    0.00    0.00      -0.41   -0.42   -0.44
#  25    0.13   -0.36    0.01   -0.06   -0.06    0.00    0.00      -0.34   -0.41   -0.41
#  26    0.20   -0.77    0.10   -0.17   -0.10    0.00    0.00      -0.75   -0.73   -0.44
#  27    0.33   -0.90    0.13   -0.22   -0.12    0.00    0.00      -0.79   -0.85   -0.46
#  28    0.02   -0.41    0.02   -0.05   -0.05    0.00    0.00      -0.48   -0.30   -0.30
#  29    0.01   -0.72    0.03   -0.04   -0.14    0.00    0.00      -0.86   -0.26   -0.95
#  30    0.03   -0.22    0.00   -0.02   -0.03    0.00    0.00      -0.24   -0.27   -0.30
#  31    0.01   -0.21    0.00   -0.01   -0.04    0.00    0.00      -0.24   -0.19   -0.95
#  32    0.09   -0.22    0.01   -0.05   -0.04    0.00    0.00      -0.21   -0.55   -0.45
#  33    1.43   -0.80    0.26   -0.08   -0.11    0.00    0.00       0.71   -0.29   -0.39
#  34   -3.33   -0.71    0.06    0.79   -0.15    0.00    0.00      -3.34    2.21   -0.42
#  35    1.67   -2.00    0.35   -0.50   -0.21    0.00    0.00      -0.70   -0.94   -0.40
#  36    1.55   -1.99    0.50   -0.41   -0.24    0.00    0.00      -0.60   -0.76   -0.45
#  37   -0.65   -0.24    0.01    0.12   -0.09    0.00    0.00      -0.85    0.39   -0.28
#  38   -0.81   -0.35    0.06    0.20   -0.10    0.00    0.00      -1.00    0.57   -0.28
#  39   -0.58   -0.39    0.07    0.21   -0.13    0.00    0.00      -0.82    0.45   -0.28
#  40   -0.55   -0.25    0.02    0.31   -0.07    0.00    0.00      -0.54    1.27   -0.28
#  41    0.11   -0.64    0.80    0.61   -0.08    0.00    0.00       0.79    2.17   -0.28
#  42   -6.77   -0.04    0.00    3.20    0.17    0.00    0.00      -3.43    7.92    0.41
#  43   -1.29   -0.16    0.01    0.33   -0.03    0.00    0.00      -1.14    2.03   -0.20
#  44   -2.24   -0.18    0.01    0.36   -0.05    0.00    0.00      -2.10    1.96   -0.28
#  45   -1.78   -0.09    0.00    0.34   -0.02    0.00    0.00      -1.54    4.38   -0.28
#  46   -2.37   -0.18    0.01    0.95   -0.05    0.00    0.00      -1.64    4.84   -0.25
#  47   -0.94   -0.14    0.02    0.31   -0.03    0.00    0.00      -0.78    2.65   -0.24
#  48   -1.56   -0.06    0.00    0.36   -0.01    0.00    0.00      -1.28    6.14   -0.21
#  49   -4.26   -0.28    0.09    1.02   -0.06    0.00    0.00      -3.48    4.92   -0.27
#  50   -1.94   -0.07    0.00    0.23   -0.02    0.00    0.00      -1.78    3.83   -0.27
#  51   -1.27   -0.09    0.00    0.39   -0.02    0.00    0.00      -0.99    3.76   -0.21
#  52   -3.45   -0.57    0.35    1.14   -0.08    0.00    0.00      -2.61    3.95   -0.28
#  53   -1.60   -0.10    0.00    0.15   -0.03    0.00    0.00      -1.57    1.40   -0.28
#  54   -0.76   -0.03    0.00    0.05   -0.01    0.00    0.00      -0.76    1.29   -0.28
#  55   -0.22   -0.09    0.00    0.21   -0.03    0.00    0.00      -0.12    2.19   -0.28
#  56   -0.42   -0.33    0.13    0.46   -0.06    0.00    0.00      -0.22    2.19   -0.28
#  57   -0.21   -0.06    0.00    0.02   -0.02    0.00    0.00      -0.27    0.31   -0.28
#  58   -0.25   -0.16    0.02    0.04   -0.04    0.00    0.00      -0.39    0.30   -0.28
#  59   -6.96   -0.01    0.00    1.33    0.09    0.00    0.00      -5.55    7.97    0.56
#  60   -2.20   -0.15    0.01    0.65   -0.04    0.00    0.00      -1.74    3.46   -0.21
#  61   -0.26   -0.03    0.00    0.02   -0.01    0.00    0.00      -0.28    0.51   -0.26
#  62   -2.05   -0.21    0.03    0.66   -0.04    0.00    0.00      -1.60    3.54   -0.21
#  63   -1.40   -0.36    0.14    0.58   -0.08    0.00    0.00      -1.12    2.14   -0.28
#  64   -0.16   -0.02    0.00    0.02   -0.01    0.00    0.00      -0.17    0.86   -0.28
#  65   -2.49   -0.13    0.01    0.31   -0.04    0.00    0.00      -2.34    2.29   -0.28
#  66   -6.22   -0.65    0.95    1.68   -0.07    0.00    0.00      -4.31    5.98   -0.26
#  67   -3.69   -0.28    0.04    1.47   -0.08    0.00    0.00      -2.55    4.90   -0.28
#  68   -3.64   -0.26    0.03    0.23   -0.06    0.00    0.00      -3.70    0.91   -0.24
#  69   -2.22   -0.52    0.12    0.35   -0.11    0.00    0.00      -2.38    0.68   -0.22
#  70   -2.54   -0.45    0.07    0.33   -0.13    0.00    0.00      -2.72    0.68   -0.28

@<TRIPOS>MOLECULE
          T368847        95
   70    72     0     0     0



@<TRIPOS>ATOM
      1 C1          9.2979   -11.1017    97.7214 C.3        1          -0.1198
      2 C2          8.1867   -10.0914    97.5971 C.ar       1          -0.0886
      3 C3          7.1968   -10.2678    96.6478 C.ar       1          -0.0995
      4 C4          6.1768    -9.3438    96.5316 C.ar       1          -0.1365
      5 C5          6.1460    -8.2368    97.3694 C.ar       1           0.1361
      6 N1          5.1136    -7.2991    97.2546 N.am       1          -0.6773
      7 C6          4.1478    -7.4698    96.3302 C.2        1           0.7004
      8 O1          3.4478    -8.4636    96.3586 O.2        1          -0.5522
      9 N2          3.9578    -6.5390    95.3742 N.am       1          -0.6382
     10 C7          2.5991    -6.3464    94.8280 C.3        1           0.0952
     11 C8          2.6386    -6.1536    93.3010 C.3        1          -0.1565
     12 C9          3.6612    -7.0932    92.7011 C.3        1          -0.0114
     13 N3          4.9415    -6.3995    92.5807 N.4        1          -0.3657
     14 H1          4.7593    -5.4272    92.3820 H          1           0.4169
     15 C10         5.6744    -6.9733    91.4442 C.3        1          -0.0204
     16 C11         5.1409    -6.3772    90.1400 C.3        1          -0.1465
     17 C12         5.9042    -6.9748    88.9564 C.3        1          -0.1156
     18 C13         5.3709    -6.3786    87.6521 C.3        1          -0.1321
     19 C14         6.1341    -6.9763    86.4685 C.3        1           0.1173
     20 N4          7.5599    -6.6661    86.6001 N.am       1          -0.7313
     21 C15         8.4616    -7.6641    86.6841 C.2        1           0.5491
     22 O2          8.0917    -8.8230    86.6506 O.2        1          -0.5373
     23 C16         9.8864    -7.3542    86.8155 C.2        1          -0.2144
     24 C17        10.7888    -8.3529    86.8996 C.2        1          -0.0085
     25 C18        12.2208    -8.0413    87.0318 C.ar       1          -0.0648
     26 C19        12.6268    -6.7813    87.4841 C.ar       1          -0.0858
     27 C20        13.9698    -6.4959    87.6062 C.ar       1          -0.0993
     28 C21        14.9174    -7.4533    87.2822 C.ar       1          -0.0208
     29 Cl1        16.6065    -7.0850    87.4396 Cl         1          -0.0367
     30 C22        14.5228    -8.7041    86.8331 C.ar       1          -0.0337
     31 Cl2        15.7183    -9.8967    86.4302 Cl         1          -0.0361
     32 C23        13.1818    -9.0051    86.7112 C.ar       1          -0.0729
     33 C24         5.7687    -6.4735    93.7235 C.3        1          -0.0469
     34 C25         5.0922    -5.7592    94.9237 C.3        1           0.1154
     35 C26         7.1415    -8.0626    98.3217 C.ar       1          -0.1140
     36 C27         8.1559    -8.9928    98.4364 C.ar       1          -0.1022
     37 H2          9.1559   -11.8907    96.9828 H          1           0.0743
     38 H3         10.2559   -10.6111    97.5492 H          1           0.0696
     39 H4          9.2856   -11.5341    98.7218 H          1           0.0691
     40 H5          7.2215   -11.1287    95.9962 H          1           0.1304
     41 H6          5.4042    -9.4820    95.7898 H          1           0.1254
     42 H7          5.0929    -6.5263    97.8405 H          1           0.4056
     43 H8          1.9921    -7.2208    95.0625 H          1           0.0923
     44 H9          2.1500    -5.4663    95.2882 H          1           0.0932
     45 H10         1.6560    -6.3702    92.8819 H          1           0.1272
     46 H11         2.9126    -5.1238    93.0718 H          1           0.0940
     47 H12         3.7782    -7.9637    93.3466 H          1           0.1287
     48 H13         3.3264    -7.4134    91.7145 H          1           0.1387
     49 H14         6.7352    -6.7426    91.5422 H          1           0.1346
     50 H15         5.5374    -8.0547    91.4322 H          1           0.1312
     51 H16         4.0802    -6.6081    90.0421 H          1           0.0874
     52 H17         5.2778    -5.2958    90.1521 H          1           0.0893
     53 H18         6.9650    -6.7439    89.0543 H          1           0.0800
     54 H19         5.7673    -8.0561    88.9444 H          1           0.0789
     55 H20         4.3100    -6.6094    87.5543 H          1           0.0742
     56 H21         5.5078    -5.2973    87.6642 H          1           0.0750
     57 H22         5.9972    -8.0575    86.4565 H          1           0.0706
     58 H23         5.7542    -6.5516    85.5393 H          1           0.0702
     59 H24         7.8548    -5.7424    86.6268 H          1           0.4023
     60 H25        10.2147    -6.3258    86.8452 H          1           0.1323
     61 H26        10.4603    -9.3813    86.8699 H          1           0.1427
     62 H27        11.8897    -6.0337    87.7370 H          1           0.1428
     63 H28        14.2842    -5.5235    87.9551 H          1           0.1486
     64 H29        12.8753    -9.9813    86.3656 H          1           0.1503
     65 H30         5.9426    -7.5194    93.9762 H          1           0.1311
     66 H31         6.7232    -5.9925    93.5099 H          1           0.1460
     67 H32         4.7524    -4.7711    94.6135 H          1           0.1014
     68 H33         5.8078    -5.6558    95.7393 H          1           0.1332
     69 H34         7.1203    -7.2027    98.9747 H          1           0.1359
     70 H35         8.9281    -8.8602    99.1797 H          1           0.1281
@<TRIPOS>BOND
     1    1    2 1
     2    1   37 1
     3    1   38 1
     4    1   39 1
     5    2   36 ar
     6    2    3 ar
     7    3    4 ar
     8    3   40 1
     9    4    5 ar
    10    4   41 1
    11    5    6 1
    12    5   35 ar
    13    6    7 am
    14    6   42 1
    15    7    8 2
    16    7    9 am
    17    9   34 1
    18    9   10 1
    19   10   11 1
    20   10   43 1
    21   10   44 1
    22   11   12 1
    23   11   45 1
    24   11   46 1
    25   12   13 1
    26   12   47 1
    27   12   48 1
    28   13   14 1
    29   13   15 1
    30   13   33 1
    31   15   16 1
    32   15   49 1
    33   15   50 1
    34   16   17 1
    35   16   51 1
    36   16   52 1
    37   17   18 1
    38   17   53 1
    39   17   54 1
    40   18   19 1
    41   18   55 1
    42   18   56 1
    43   19   20 1
    44   19   57 1
    45   19   58 1
    46   20   21 am
    47   20   59 1
    48   21   22 2
    49   21   23 1
    50   23   24 2
    51   23   60 1
    52   24   25 1
    53   24   61 1
    54   25   32 ar
    55   25   26 ar
    56   26   27 ar
    57   26   62 1
    58   27   28 ar
    59   27   63 1
    60   28   29 1
    61   28   30 ar
    62   30   31 1
    63   30   32 ar
    64   32   64 1
    65   33   34 1
    66   33   65 1
    67   33   66 1
    68   34   67 1
    69   34   68 1
    70   35   36 ar
    71   35   69 1
    72   36   70 1
##########                 Name:              T540869
##########          Protonation:                   99
##########               SMILES:   CCCCCCC[NH+]1CC[C@@H]([C@@H](C1)CC)C[C@H](Cc2ccnc3c2cc(cc3)OC)[NH3+]
##########            Long Name:   1-heptyl-piperidin-1-ium-4-yl]methyl]-2-(6-methoxy-4-quinolyl)ethyl]ammonium
##########          FlexRecCode: 1
##########               Number:                  269
##########   Ligand Source File: /raidb/db2/rgc/tcams/tcams-0002026.db2.gz
##########           GlobalRank: 341
##########                 Rank:                    1
##########               Setnum:                  242
##########             Matchnum:                 4096
##########                Cloud:                    1
##########        Electrostatic:           -51.127712
##########        Van der Waals:           -21.405724
##########  Ligand Polar Desolv:             9.709983
########## Ligand Apolar Desolv:            -1.938013
##########      Internal Energy:             0.000000
##########      Receptor Energy: 0.0
########## Receptor Desolvation:             0.000000
########## Receptor Hydrophobic:             0.000000
##########         Total Energy: -64.76
##########        Ligand Charge:             2.000000
##########            Arbitrary:    +999.9990
##########     heavy atom count:   31
##########           pose count:    1
##########        Ligand Energy:             0.000000
# num electro vdwattr vdwrepu polsolv apolsol rdesolv rhydroe totalscore fullpol fullapo
#   1    0.22   -0.32    0.01   -0.43   -0.04    0.00    0.00      -0.55   -2.26   -0.19
#   2    0.24   -0.44    0.08   -0.38   -0.04    0.00    0.00      -0.54   -2.10   -0.25
#   3    0.30   -0.45    0.05   -0.54   -0.05    0.00    0.00      -0.69   -2.43   -0.22
#   4    0.25   -0.17    0.00   -0.32   -0.02    0.00    0.00      -0.26   -2.94   -0.22
#   5    0.59   -0.19    0.01   -0.41   -0.02    0.00    0.00      -0.02   -3.62   -0.22
#   6    0.83   -0.10    0.00   -0.32   -0.01    0.00    0.00       0.39   -5.26   -0.21
#   7    0.08   -0.09    0.00    0.03   -0.02    0.00    0.00       0.00    0.60   -0.35
#   8    4.53   -0.21    0.00   -1.78    0.03    0.00    0.00       2.57  -16.61    0.27
#   9   -6.01    0.00    0.00    1.17    0.03    0.00    0.00      -4.82   20.17    0.54
#  10    0.34   -0.30    0.02   -0.28   -0.06    0.00    0.00      -0.29   -1.61   -0.35
#  11    5.23   -1.44    0.97   -2.04   -0.06    0.00    0.00       2.65   -7.24   -0.22
#  12    3.17   -1.09    0.37   -1.32   -0.04    0.00    0.00       1.09   -4.57   -0.14
#  13    2.95   -0.39    0.03   -1.73   -0.03    0.00    0.00       0.82   -8.27   -0.15
#  14   -0.81   -0.56    0.08    0.68   -0.05    0.00    0.00      -0.66    2.99   -0.24
#  15   24.73   -2.07    1.20  -11.17    0.21    0.00    0.00      12.90  -32.54    0.62
#  16  -11.97   -0.03    0.00    6.76    0.13    0.00    0.00      -5.11   22.76    0.45
#  17  -16.91   -0.03    0.00    5.31    0.11    0.00    0.00     -11.52   19.54    0.39
#  18  -25.46   -0.15    0.03    9.68    0.19    0.00    0.00     -15.71   24.48    0.47
#  19    1.32   -0.32    0.01   -0.83   -0.04    0.00    0.00       0.14   -4.68   -0.20
#  20    1.53   -0.67    0.04   -0.04   -0.08    0.00    0.00       0.77   -0.20   -0.34
#  21    0.61   -1.13    0.32   -0.54   -0.09    0.00    0.00      -0.83   -2.00   -0.35
#  22    0.81   -1.82    1.63   -1.01   -0.09    0.00    0.00      -0.47   -3.85   -0.33
#  23   -0.60   -1.93    1.20    0.79   -0.10    0.00    0.00      -0.64    2.45   -0.31
#  24    1.01   -1.22    0.25   -2.35    0.29    0.00    0.00      -2.03   -7.49    0.93
#  25   -0.09   -0.82    0.07    0.10    0.01    0.00    0.00      -0.74    0.26    0.03
#  26    1.03   -2.09    0.60   -1.43   -0.17    0.00    0.00      -2.06   -3.65   -0.43
#  27    0.17   -2.35    0.86   -1.00   -0.21    0.00    0.00      -2.53   -2.24   -0.46
#  28   -1.25   -1.43    0.19    0.28   -0.29    0.00    0.00      -2.51    0.70   -0.73
#  29    8.45   -1.93    0.35   -4.99    0.95    0.00    0.00       2.83  -10.47    1.99
#  30   -2.89   -1.55    0.18    0.83   -0.43    0.00    0.00      -3.85    1.87   -0.97
#  31    2.72   -0.82    0.03   -1.39   -0.14    0.00    0.00       0.39   -4.38   -0.45
#  32    0.77   -0.57    0.07   -0.89   -0.03    0.00    0.00      -0.65   -3.75   -0.14
#  33    0.35   -0.77    0.22   -1.16   -0.05    0.00    0.00      -1.42   -4.45   -0.21
#  34    0.39   -0.63    0.14   -1.34   -0.05    0.00    0.00      -1.49   -5.92   -0.20
#  35    0.11   -0.17    0.00   -0.07   -0.03    0.00    0.00      -0.15   -0.62   -0.30
#  36   -0.04   -0.07    0.00    0.05   -0.02    0.00    0.00      -0.08    0.70   -0.28
#  37   -0.40   -0.18    0.02    0.09   -0.05    0.00    0.00      -0.52    0.53   -0.28
#  38   -0.07   -0.06    0.00    0.02   -0.01    0.00    0.00      -0.13    0.30   -0.28
#  39   -0.14   -0.41    0.47    0.21   -0.06    0.00    0.00       0.07    1.03   -0.28
#  40   -0.09   -0.06    0.00    0.05   -0.02    0.00    0.00      -0.11    0.74   -0.28
#  41   -0.64   -0.20    0.02    0.15   -0.06    0.00    0.00      -0.73    0.71   -0.28
#  42   -0.17   -0.19    0.03    0.22   -0.05    0.00    0.00      -0.16    1.13   -0.28
#  43   -0.10   -0.03    0.00    0.06   -0.01    0.00    0.00      -0.08    1.81   -0.28
#  44   -0.14   -0.05    0.00    0.05   -0.01    0.00    0.00      -0.15    1.07   -0.28
#  45   -0.84   -0.07    0.00    0.08   -0.02    0.00    0.00      -0.84    1.28   -0.28
#  46   -0.21   -0.10    0.02    0.20   -0.02    0.00    0.00      -0.12    2.37   -0.28
#  47   -0.22   -0.02    0.00    0.12   -0.01    0.00    0.00      -0.12    4.78   -0.22
#  48   -0.68   -0.04    0.00    0.12   -0.01    0.00    0.00      -0.61    2.82   -0.28
#  49   -0.49   -0.02    0.00    0.16   -0.01    0.00    0.00      -0.37    4.94   -0.28
#  50   -0.70   -0.02    0.00    0.20   -0.01    0.00    0.00      -0.53    7.45   -0.28
#  51   -1.84   -0.05    0.00    0.47   -0.01    0.00    0.00      -1.43    9.57   -0.22
#  52   -2.45   -0.10    0.01    0.72   -0.03    0.00    0.00      -1.85    6.07   -0.22
#  53   -5.07   -1.00    2.44    2.00   -0.06    0.00    0.00      -1.69    7.25   -0.22
#  54   -4.03   -0.64    0.44    1.06   -0.08    0.00    0.00      -3.25    3.54   -0.28
#  55   -4.54   -1.09    1.70    2.33   -0.08    0.00    0.00      -1.68    6.48   -0.22
#  56   -1.30   -0.10    0.00    0.72   -0.03    0.00    0.00      -0.70    6.35   -0.22
#  57   -1.35   -0.05    0.00    0.39   -0.01    0.00    0.00      -1.02    8.15   -0.18
#  58   -4.47   -0.20    0.05    1.49   -0.03    0.00    0.00      -3.16   10.22   -0.22
#  59   -1.27   -0.07    0.00    0.38   -0.02    0.00    0.00      -0.98    5.73   -0.23
#  60   -0.74   -0.12    0.01    0.86   -0.03    0.00    0.00      -0.02    8.00   -0.28
#  61   -0.45   -0.24    0.07    1.61   -0.03    0.00    0.00       0.98    9.99   -0.16
#  62   -0.53   -0.19    0.01    0.13   -0.05    0.00    0.00      -0.63    0.66   -0.27
#  63   -0.60   -0.21    0.02    0.31   -0.05    0.00    0.00      -0.54    1.51   -0.27
#  64   -0.25   -0.42    0.08    0.93   -0.10    0.00    0.00       0.25    2.68   -0.28
#  65   -0.99   -0.47    0.16    0.63   -0.07    0.00    0.00      -0.73    2.07   -0.22
#  66   -1.80   -0.69    0.42    0.30   -0.13    0.00    0.00      -1.90    0.65   -0.28
#  67   -4.63   -0.51    0.12    1.44   -0.13    0.00    0.00      -3.70    3.19   -0.28
#  68   -3.34   -0.15    0.00    1.27   -0.04    0.00    0.00      -2.26    8.50   -0.28
#  69   -1.06   -0.28    0.08    0.69   -0.06    0.00    0.00      -0.62    3.47   -0.28
#  70   -0.19   -0.10    0.00    0.52   -0.02    0.00    0.00       0.21    4.75   -0.22
#  71   -0.23   -0.79    1.14    0.96   -0.09    0.00    0.00       0.98    2.88   -0.28
#  72   -0.09   -0.23    0.05    0.43   -0.04    0.00    0.00       0.11    2.34   -0.22
#  73   -0.20   -0.28    0.08   -0.08   -0.05    0.00    0.00      -0.54   -0.41   -0.28
#  74   -0.15   -0.06    0.00    0.03   -0.01    0.00    0.00      -0.19    0.59   -0.28
#  75   -0.54   -0.04    0.00    0.21   -0.01    0.00    0.00      -0.39    4.53   -0.22
#  76   -0.81   -0.03    0.00    0.30   -0.01    0.00    0.00      -0.55    8.67   -0.22

@<TRIPOS>MOLECULE
          T540869        99
   76    78     0     0     0



@<TRIPOS>ATOM
      1 C1         13.5490    -7.3272    87.6317 C.3        1          -0.1580
      2 C2         13.0163    -7.7168    86.2513 C.3        1          -0.1260
      3 C3         11.4920    -7.5850    86.2371 C.3        1          -0.1229
      4 C4         10.8902    -8.5108    87.2961 C.3        1          -0.1212
      5 C5          9.3659    -8.3790    87.2819 C.3        1          -0.1189
      6 C6          8.7641    -9.3049    88.3409 C.3        1          -0.1483
      7 C7          7.2399    -9.1731    88.3267 C.3        1          -0.0123
      8 N1          6.8658    -7.7835    88.6216 N.4        1          -0.3826
      9 H1          7.5020    -7.1577    88.1507 H          1           0.4261
     10 C8          6.9397    -7.5553    90.0697 C.3        1          -0.0184
     11 C9          6.6297    -6.0883    90.3751 C.3        1          -0.1518
     12 C10         5.2210    -5.7551    89.8756 C.3        1          -0.1114
     13 C11         4.1958    -6.5996    90.6351 C.3        1          -0.1605
     14 C12         4.2912    -6.2939    92.1312 C.3        1           0.0312
     15 N2          4.0162    -4.8687    92.3581 N.4        1          -0.6433
     16 H2          3.0885    -4.6485    92.0283 H          1           0.4353
     17 H3          4.0791    -4.6671    93.3448 H          1           0.4411
     18 H4          4.6923    -4.3119    91.8574 H          1           0.4293
     19 C13         3.2660    -7.1383    92.8906 C.3        1          -0.0975
     20 C14         3.3598    -6.8371    94.3642 C.ar       1          -0.0983
     21 C15         4.2276    -7.5676    95.1982 C.ar       1          -0.0626
     22 C16         5.0333    -8.5981    94.6893 C.ar       1          -0.2335
     23 C17         5.8628    -9.2836    95.5307 C.ar       1           0.1799
     24 O1          6.6432   -10.2815    95.0389 O.3        1          -0.3124
     25 C18         7.4894   -10.9613    95.9683 C.3        1           0.0167
     26 C19         5.9184    -8.9698    96.8922 C.ar       1          -0.1812
     27 C20         5.1500    -7.9768    97.4142 C.ar       1          -0.0182
     28 C21         4.2837    -7.2498    96.5780 C.ar       1           0.0999
     29 N3          3.5185    -6.2682    97.0658 N.ar       1          -0.4362
     30 C22         2.7098    -5.5857    96.2922 C.ar       1           0.1207
     31 C23         2.6095    -5.8442    94.9266 C.ar       1          -0.1244
     32 C24         5.1337    -6.0673    88.3788 C.3        1          -0.1012
     33 C25         3.7079    -5.8118    87.8860 C.3        1          -0.1219
     34 C26         3.6217    -6.1239    86.3907 C.3        1          -0.1685
     35 C27         5.4984    -7.5355    88.1490 C.3        1          -0.0145
     36 H5         14.6349    -7.4211    87.6418 H          1           0.0550
     37 H6         13.2714    -6.2961    87.8505 H          1           0.0557
     38 H7         13.1203    -7.9869    88.3861 H          1           0.0589
     39 H8         13.4452    -7.0572    85.4970 H          1           0.0612
     40 H9         13.2939    -8.7479    86.0325 H          1           0.0621
     41 H10        11.2145    -6.5538    86.4559 H          1           0.0648
     42 H11        11.1126    -7.8626    85.2538 H          1           0.0637
     43 H12        11.1678    -9.5419    87.0774 H          1           0.0648
     44 H13        11.2697    -8.2332    88.2795 H          1           0.0666
     45 H14         9.0883    -7.3479    87.5008 H          1           0.0757
     46 H15         8.9864    -8.6566    86.2986 H          1           0.0737
     47 H16         9.0416   -10.3360    88.1220 H          1           0.0853
     48 H17         9.1436    -9.0274    89.3242 H          1           0.0883
     49 H18         6.8603    -9.4506    87.3432 H          1           0.1351
     50 H19         6.8110    -9.8327    89.0810 H          1           0.1304
     51 H20         6.2139    -8.1924    90.5750 H          1           0.1291
     52 H21         7.9419    -7.7958    90.4242 H          1           0.1405
     53 H22         6.6834    -5.9212    91.4509 H          1           0.1104
     54 H23         7.3552    -5.4502    89.8706 H          1           0.1049
     55 H24         5.0163    -4.6974    90.0411 H          1           0.0989
     56 H25         3.1936    -6.3616    90.2787 H          1           0.1126
     57 H26         4.3999    -7.6570    90.4666 H          1           0.1137
     58 H27         5.2934    -6.5318    92.4876 H          1           0.1466
     59 H28         2.2637    -6.9003    92.5343 H          1           0.1082
     60 H29         3.4699    -8.1957    92.7221 H          1           0.1262
     61 H30         4.9972    -8.8477    93.6392 H          1           0.1246
     62 H31         8.0568   -11.7320    95.4466 H          1           0.0687
     63 H32         8.1775   -10.2481    96.4222 H          1           0.0670
     64 H33         6.8795   -11.4225    96.7451 H          1           0.1149
     65 H34         6.5815    -9.5249    97.5392 H          1           0.1513
     66 H35         5.2047    -7.7469    98.4680 H          1           0.1548
     67 H36         2.1075    -4.8003    96.7241 H          1           0.1714
     68 H37         1.9367    -5.2621    94.3143 H          1           0.1456
     69 H38         5.8276    -5.4283    87.8327 H          1           0.1080
     70 H39         3.0149    -6.4521    88.4315 H          1           0.0763
     71 H40         3.4470    -4.7671    88.0547 H          1           0.0839
     72 H41         2.6060    -5.9419    86.0395 H          1           0.0575
     73 H42         4.3149    -5.4836    85.8454 H          1           0.0735
     74 H43         3.8827    -7.1687    86.2219 H          1           0.0652
     75 H44         5.4358    -7.7616    87.0845 H          1           0.1400
     76 H45         4.8041    -8.1730    88.6964 H          1           0.1306
@<TRIPOS>BOND
     1    1    2 1
     2    1   36 1
     3    1   37 1
     4    1   38 1
     5    2    3 1
     6    2   39 1
     7    2   40 1
     8    3    4 1
     9    3   41 1
    10    3   42 1
    11    4    5 1
    12    4   43 1
    13    4   44 1
    14    5    6 1
    15    5   45 1
    16    5   46 1
    17    6    7 1
    18    6   47 1
    19    6   48 1
    20    7    8 1
    21    7   49 1
    22    7   50 1
    23    8    9 1
    24    8   35 1
    25    8   10 1
    26   10   11 1
    27   10   51 1
    28   10   52 1
    29   11   12 1
    30   11   53 1
    31   11   54 1
    32   12   13 1
    33   12   32 1
    34   12   55 1
    35   13   14 1
    36   13   56 1
    37   13   57 1
    38   14   15 1
    39   14   19 1
    40   14   58 1
    41   15   16 1
    42   15   17 1
    43   15   18 1
    44   19   20 1
    45   19   59 1
    46   19   60 1
    47   20   31 ar
    48   20   21 ar
    49   21   28 ar
    50   21   22 ar
    51   22   23 ar
    52   22   61 1
    53   23   24 1
    54   23   26 ar
    55   24   25 1
    56   25   62 1
    57   25   63 1
    58   25   64 1
    59   26   27 ar
    60   26   65 1
    61   27   28 ar
    62   27   66 1
    63   28   29 ar
    64   29   30 ar
    65   30   31 ar
    66   30   67 1
    67   31   68 1
    68   32   33 1
    69   32   35 1
    70   32   69 1
    71   33   34 1
    72   33   70 1
    73   33   71 1
    74   34   72 1
    75   34   73 1
    76   34   74 1
    77   35   75 1
    78   35   76 1
##########                 Name:              T524386
##########          Protonation:                   57
##########               SMILES:   COc1ccc2c(n1)c(c3ccc(cc3[nH+]2)Cl)NCC[NH2+]C[C@H](CO)O
##########            Long Name:   [1,5]naphthyridin-5-ium-10-yl)amino]ethyl-[(2R)-2,3-dihydroxypropyl]ammonium
##########          FlexRecCode: 1
##########               Number:                   50
##########   Ligand Source File: /raidb/db2/rgc/tcams/tcams-0000015.db2.gz
##########           GlobalRank: 344
##########                 Rank:                    1
##########               Setnum:                  222
##########             Matchnum:                 5394
##########                Cloud:                    1
##########        Electrostatic:           -55.341927
##########        Van der Waals:           -19.935671
##########  Ligand Polar Desolv:            10.614645
########## Ligand Apolar Desolv:            -0.086322
##########      Internal Energy:             0.000000
##########      Receptor Energy: 0.0
########## Receptor Desolvation:             0.000000
########## Receptor Hydrophobic:             0.000000
##########         Total Energy: -64.75
##########        Ligand Charge:             2.000000
##########            Arbitrary:    +999.9990
##########     heavy atom count:   26
##########           pose count:    1
##########        Ligand Energy:             0.000000
# num electro vdwattr vdwrepu polsolv apolsol rdesolv rhydroe totalscore fullpol fullapo
#   1   -0.34   -0.34    0.02   -0.06    0.01    0.00    0.00      -0.72   -0.29    0.03
#   2    4.64   -0.53    0.03   -2.11    0.20    0.00    0.00       2.22   -9.76    0.91
#   3   -6.91   -0.58    0.02    1.97   -0.14    0.00    0.00      -5.64    9.19   -0.66
#   4    1.46   -0.71    0.02   -0.95   -0.13    0.00    0.00      -0.30   -3.48   -0.46
#   5    1.52   -0.91    0.04   -0.78   -0.15    0.00    0.00      -0.28   -2.33   -0.46
#   6   -2.46   -0.89    0.07    1.43   -0.22    0.00    0.00      -2.07    4.78   -0.73
#   7    6.49   -1.18    0.09   -6.10    0.35    0.00    0.00      -0.35  -16.17    0.94
#   8   -6.14   -0.02    0.00    5.01    0.19    0.00    0.00      -0.96   15.01    0.57
#   9   -2.80   -1.16    0.09    2.70   -0.27    0.00    0.00      -1.45    7.35   -0.74
#  10    1.95   -1.59    0.24   -2.23   -0.21    0.00    0.00      -1.85   -4.86   -0.46
#  11   -0.85   -1.49    0.20    0.26   -0.13    0.00    0.00      -2.02    0.58   -0.30
#  12   -0.08   -4.17    1.63   -1.39   -0.54    0.00    0.00      -4.55   -2.55   -0.99
#  13    1.23   -1.99    1.06   -1.79   -0.16    0.00    0.00      -1.65   -5.15   -0.46
#  14    0.30   -2.45    2.89    0.27   -0.13    0.00    0.00       0.88    0.93   -0.45
#  15    1.79   -1.18    0.20   -1.74   -0.12    0.00    0.00      -1.05   -5.78   -0.41
#  16   -5.01   -0.84    0.08    4.05   -0.18    0.00    0.00      -1.90   15.84   -0.72
#  17    8.19   -0.67    0.06   -5.62    0.36    0.00    0.00       2.32  -25.35    1.64
#  18   -1.48   -0.79    0.25    0.40   -0.09    0.00    0.00      -1.72    1.66   -0.37
#  19    0.63   -0.38    0.03   -0.05   -0.08    0.00    0.00       0.15   -0.26   -0.41
#  20   11.82   -0.75    0.12   -5.93    0.18    0.00    0.00       5.43  -23.91    0.73
#  21  -14.55   -0.04    0.00    6.76    0.17    0.00    0.00      -7.66   22.90    0.57
#  22   -7.60   -0.01    0.00    2.60    0.06    0.00    0.00      -4.94   21.98    0.54
#  23    0.89   -0.47    0.04    0.08   -0.08    0.00    0.00       0.46    0.38   -0.38
#  24   -2.03   -0.66    0.06    0.93   -0.05    0.00    0.00      -1.76    2.83   -0.15
#  25   10.15   -0.54    0.02   -5.36    0.42    0.00    0.00       4.69  -19.40    1.53
#  26   -0.92   -0.89    0.13    0.00   -0.05    0.00    0.00      -1.73   -0.01   -0.13
#  27    6.30   -3.15    4.13   -5.52    0.64    0.00    0.00       2.40  -14.04    1.62
#  28   -0.96   -0.73    0.06    0.35   -0.17    0.00    0.00      -1.44    1.49   -0.71
#  29    9.24   -0.56    0.03   -2.98    0.31    0.00    0.00       6.04  -15.45    1.61
#  30   -0.38   -0.12    0.01    0.61   -0.04    0.00    0.00       0.08    4.85   -0.28
#  31   -2.60   -0.14    0.01    0.42   -0.04    0.00    0.00      -2.36    2.68   -0.28
#  32   -0.50   -0.05    0.00    0.19   -0.01    0.00    0.00      -0.37    4.07   -0.25
#  33   -4.23   -0.15    0.00    0.66   -0.04    0.00    0.00      -3.76    4.41   -0.28
#  34   -3.93   -0.26    0.02    1.88   -0.08    0.00    0.00      -2.37    6.64   -0.28
#  35   -2.40   -0.44    0.10    1.74   -0.11    0.00    0.00      -1.11    4.47   -0.28
#  36   -1.72   -0.37    0.13    1.10   -0.07    0.00    0.00      -0.94    4.21   -0.28
#  37   -1.48   -0.69    1.56    1.96   -0.05    0.00    0.00       1.30    9.82   -0.23
#  38   -3.03   -0.01    0.00    2.07    0.05    0.00    0.00      -0.93   20.94    0.46
#  39   -2.96   -0.58    0.55    1.66   -0.08    0.00    0.00      -1.42    5.74   -0.27
#  40   -1.81   -0.33    0.18    1.01   -0.03    0.00    0.00      -0.98    5.34   -0.16
#  41   -1.80   -0.04    0.00    0.39   -0.01    0.00    0.00      -1.46    9.36   -0.28
#  42   -3.64   -0.14    0.02    1.19   -0.03    0.00    0.00      -2.61    9.89   -0.28
#  43   -1.77   -0.06    0.00    0.47   -0.02    0.00    0.00      -1.38    8.57   -0.28
#  44   -3.68   -0.22    0.03    1.72   -0.05    0.00    0.00      -2.21    8.99   -0.28
#  45   -4.62   -0.42    0.13    1.30   -0.09    0.00    0.00      -3.70    3.85   -0.28
#  46   -8.80   -0.01    0.00    3.19    0.28    0.00    0.00      -5.35   14.11    1.22
#  47   -1.79   -0.37    0.09    0.72   -0.09    0.00    0.00      -1.45    2.14   -0.28
#  48   -0.54   -0.29    0.09    0.52   -0.05    0.00    0.00      -0.28    2.74   -0.28
#  49  -18.11   -0.28    0.20    3.65    0.51    0.00    0.00     -14.04    8.90    1.24

@<TRIPOS>MOLECULE
          T524386        57
   49    51     0     0     0



@<TRIPOS>ATOM
      1 C1          3.1464    -6.5339    90.8227 C.3        1           0.0263
      2 O1          2.6554    -6.0468    92.0732 O.3        1          -0.2768
      3 C2          3.3404    -6.4086    93.1865 C.ar       1           0.3553
      4 C3          2.8972    -5.9621    94.4404 C.ar       1          -0.0689
      5 C4          3.5731    -6.3168    95.5661 C.ar       1          -0.0784
      6 C5          4.7198    -7.1376    95.4358 C.ar       1           0.1636
      7 N1          5.4022    -7.5020    96.5199 N.ar       1          -0.5055
      8 H1          5.1023    -7.1979    97.3909 H          1           0.4477
      9 C6          6.4833    -8.2720    96.4402 C.ar       1           0.2460
     10 C7          7.1991    -8.6540    97.5920 C.ar       1          -0.1612
     11 C8          8.3000    -9.4432    97.4675 C.ar       1           0.0702
     12 Cl1         9.1725    -9.9070    98.8949 Cl         1           0.0055
     13 C9          8.7464    -9.8900    96.2240 C.ar       1          -0.1156
     14 C10         8.1005    -9.5564    95.0747 C.ar       1          -0.0288
     15 C11         6.9557    -8.7437    95.1361 C.ar       1          -0.1595
     16 C12         6.2504    -8.3697    93.9795 C.ar       1           0.3931
     17 N2          6.6575    -8.7899    92.7286 N.pl3      1          -0.6622
     18 C13         7.6016    -7.9797    91.9550 C.3        1           0.0779
     19 C14         6.9531    -7.5637    90.6332 C.3        1          -0.0315
     20 N3          7.8997    -6.7514    89.8574 N.4        1          -0.5004
     21 H2          8.1467    -5.9274    90.3849 H          1           0.4346
     22 H3          8.7308    -7.2916    89.6690 H          1           0.4350
     23 C15         7.2769    -6.3520    88.5884 C.3        1          -0.0430
     24 C16         8.2630    -5.5059    87.7805 C.3        1           0.0816
     25 O2          9.4400    -6.2711    87.5135 O.3        1          -0.5446
     26 C17         7.6144    -5.0899    86.4586 C.3        1           0.0478
     27 O3          6.4374    -4.3247    86.7256 O.3        1          -0.5583
     28 C18         5.1114    -7.5523    94.1389 C.ar       1           0.0639
     29 N4          4.4009    -7.1736    93.0683 N.ar       1          -0.5209
     30 H4          2.5089    -6.1716    90.0161 H          1           0.0552
     31 H5          4.1650    -6.1776    90.6686 H          1           0.1207
     32 H6          3.1398    -7.6238    90.8294 H          1           0.0617
     33 H7          2.0197    -5.3367    94.5117 H          1           0.1824
     34 H8          3.2429    -5.9797    96.5376 H          1           0.1839
     35 H9          6.8758    -8.3220    98.5676 H          1           0.1742
     36 H10         9.6257   -10.5151    96.1727 H          1           0.1658
     37 H11         8.4644    -9.9132    94.1225 H          1           0.1556
     38 H12         6.3183    -9.6214    92.3621 H          1           0.4280
     39 H13         7.8684    -7.0896    92.5247 H          1           0.1075
     40 H14         8.4993    -8.5634    91.7513 H          1           0.1299
     41 H15         6.6862    -8.4539    90.0635 H          1           0.1467
     42 H16         6.0553    -6.9802    90.8368 H          1           0.1466
     43 H17         7.0102    -7.2421    88.0186 H          1           0.1440
     44 H18         6.3791    -5.7684    88.7920 H          1           0.1507
     45 H19         8.5298    -4.6158    88.3501 H          1           0.1329
     46 H20        10.1106    -5.7962    87.0036 H          1           0.3908
     47 H21         8.3170    -4.4872    85.8830 H          1           0.0626
     48 H22         7.3476    -5.9801    85.8889 H          1           0.0667
     49 H23         6.6003    -3.5162    87.2305 H          1           0.4014
@<TRIPOS>BOND
     1    1    2 1
     2    1   30 1
     3    1   31 1
     4    1   32 1
     5    2    3 1
     6    3   29 ar
     7    3    4 ar
     8    4    5 ar
     9    4   33 1
    10    5    6 ar
    11    5   34 1
    12    6   28 ar
    13    6    7 ar
    14    7    8 1
    15    7    9 ar
    16    9   15 ar
    17    9   10 ar
    18   10   11 ar
    19   10   35 1
    20   11   12 1
    21   11   13 ar
    22   13   14 ar
    23   13   36 1
    24   14   15 ar
    25   14   37 1
    26   15   16 ar
    27   16   17 1
    28   16   28 ar
    29   17   18 1
    30   17   38 1
    31   18   19 1
    32   18   39 1
    33   18   40 1
    34   19   20 1
    35   19   41 1
    36   19   42 1
    37   20   21 1
    38   20   22 1
    39   20   23 1
    40   23   24 1
    41   23   43 1
    42   23   44 1
    43   24   25 1
    44   24   26 1
    45   24   45 1
    46   25   46 1
    47   26   27 1
    48   26   47 1
    49   26   48 1
    50   27   49 1
    51   28   29 ar
##########                 Name:              T528427
##########          Protonation:                   20
##########               SMILES:   Cc1c(ccc([nH+]1)N)CNC(=O)c2ccc(c(c2)/N=c/3\[nH]cc(c[nH+]3)c4cccc(c4)N(C)C)OC
##########            Long Name:   imethylamino)phenyl]-1H-pyrimidin-3-ium-2-ylidene]amino]-4-methoxy-benzamide
##########          FlexRecCode: 1
##########               Number:                  211
##########   Ligand Source File: /raidb/db2/rgc/tcams/tcams-0000479.db2.gz
##########           GlobalRank: 344
##########                 Rank:                    1
##########               Setnum:                  376
##########             Matchnum:                 2555
##########                Cloud:                    1
##########        Electrostatic:           -57.572124
##########        Van der Waals:           -22.041008
##########  Ligand Polar Desolv:            17.088177
########## Ligand Apolar Desolv:            -2.221043
##########      Internal Energy:             0.000000
##########      Receptor Energy: 0.0
########## Receptor Desolvation:             0.000000
########## Receptor Hydrophobic:             0.000000
##########         Total Energy: -64.75
##########        Ligand Charge:             2.000000
##########            Arbitrary:    +999.9990
##########     heavy atom count:   36
##########           pose count:    1
##########        Ligand Energy:             0.000000
# num electro vdwattr vdwrepu polsolv apolsol rdesolv rhydroe totalscore fullpol fullapo
#   1   -0.03   -0.40    0.03    0.04    0.01    0.00    0.00      -0.34    0.22    0.03
#   2    0.56   -0.22    0.00   -0.72    0.10    0.00    0.00      -0.28   -6.40    0.89
#   3   -0.52   -0.27    0.01    0.27   -0.04    0.00    0.00      -0.55    2.37   -0.31
#   4    0.39   -0.16    0.00   -0.32   -0.03    0.00    0.00      -0.12   -4.81   -0.42
#   5    0.11   -0.22    0.00   -0.05   -0.04    0.00    0.00      -0.20   -0.57   -0.45
#   6    1.56   -0.35    0.01   -0.54   -0.06    0.00    0.00       0.62   -3.88   -0.41
#   7    1.20   -0.69    0.06   -0.46   -0.08    0.00    0.00       0.04   -2.03   -0.33
#   8   -0.26   -0.60    0.04    0.21   -0.13    0.00    0.00      -0.73    0.99   -0.59
#   9    1.89   -1.51    0.46   -3.85    0.58    0.00    0.00      -2.44  -13.39    2.00
#  10   -7.33   -1.08    0.22    3.92   -1.16    0.00    0.00      -5.42   15.51   -4.59
#  11    7.95   -0.39    0.01   -2.70    0.14    0.00    0.00       5.01  -17.54    0.91
#  12   -4.26   -0.35    0.01    1.60   -0.13    0.00    0.00      -3.13   11.65   -0.94
#  13    3.55   -0.59    0.03   -1.69   -0.09    0.00    0.00       1.21   -7.04   -0.37
#  14   -8.29   -1.18    0.13    4.36   -0.34    0.00    0.00      -5.32   12.05   -0.94
#  15   11.14   -2.19    1.36   -5.55    0.36    0.00    0.00       5.11  -16.00    1.03
#  16  -14.78   -0.13    0.04    5.34    0.21    0.00    0.00      -9.32   15.37    0.59
#  17    0.30   -0.57    0.02    0.28   -0.09    0.00    0.00      -0.06    1.18   -0.37
#  18    3.25   -1.33    0.33   -1.21   -0.15    0.00    0.00       0.88   -3.51   -0.45
#  19    0.72   -1.61    0.89   -0.60   -0.15    0.00    0.00      -0.75   -1.93   -0.47
#  20    0.36   -0.57    0.05   -0.72   -0.08    0.00    0.00      -0.96   -3.90   -0.43
#  21   -0.44   -0.29    0.01    0.36   -0.09    0.00    0.00      -0.46    2.83   -0.70
#  22    0.46   -0.32    0.01   -0.58   -0.06    0.00    0.00      -0.50   -4.05   -0.41
#  23    0.84   -0.16    0.00   -0.68    0.13    0.00    0.00       0.14  -10.27    1.96
#  24   -0.07   -0.09    0.00    0.07   -0.03    0.00    0.00      -0.12    1.18   -0.54
#  25   -0.10   -0.07    0.00    0.07   -0.03    0.00    0.00      -0.13    1.46   -0.56
#  26   -6.93   -0.44    0.01    2.34   -0.11    0.00    0.00      -5.13   13.77   -0.65
#  27    2.45   -0.70    0.10   -2.42    0.08    0.00    0.00      -0.49  -12.06    0.41
#  28   15.57   -0.66    0.03   -4.73    0.49    0.00    0.00      10.71  -19.72    2.05
#  29   -3.63   -0.49    0.01    1.36   -0.11    0.00    0.00      -2.85    4.69   -0.38
#  30    3.78   -0.88    0.04   -1.81   -0.12    0.00    0.00       1.01   -5.70   -0.37
#  31   -3.07   -1.20    0.10    2.96   -0.28    0.00    0.00      -1.49    7.88   -0.75
#  32    1.48   -1.59    0.61   -2.43   -0.09    0.00    0.00      -2.03   -5.22   -0.19
#  33    7.46   -1.37    0.14   -6.92    0.38    0.00    0.00      -0.32  -16.89    0.93
#  34   -5.11   -0.03    0.00    5.96    0.20    0.00    0.00       1.02   17.31    0.57
#  35   -9.17   -1.54    0.36    6.65   -0.91    0.00    0.00      -4.60   15.40   -2.11
#  36   15.23   -2.32    0.69  -13.06    0.44    0.00    0.00       0.99  -27.00    0.92
#  37    5.95   -1.66    0.28   -3.04   -0.20    0.00    0.00       1.33   -6.93   -0.46
#  38   -1.86   -1.40    0.30    0.54   -0.19    0.00    0.00      -2.60    1.32   -0.46
#  39   -0.19   -0.12    0.01    0.24   -0.04    0.00    0.00      -0.10    1.86   -0.28
#  40   -0.08   -0.08    0.00    0.18   -0.02    0.00    0.00       0.00    2.10   -0.27
#  41   -0.11   -0.31    0.10    0.30   -0.05    0.00    0.00      -0.06    1.48   -0.26
#  42   -0.16   -0.02    0.00    0.12   -0.01    0.00    0.00      -0.07    4.24   -0.22
#  43   -0.16   -0.05    0.00    0.31   -0.01    0.00    0.00       0.09    6.38   -0.21
#  44   -4.53   -0.30    0.07    0.83   -0.06    0.00    0.00      -3.99    3.45   -0.25
#  45   -4.99    0.00    0.00    0.59    0.02    0.00    0.00      -4.39   14.32    0.40
#  46   -2.15   -0.04    0.00    0.39   -0.01    0.00    0.00      -1.81   10.35   -0.28
#  47   -7.40   -0.30    0.03    3.73   -0.10    0.00    0.00      -4.04   10.55   -0.28
#  48   -3.88   -0.43    0.13    1.57   -0.09    0.00    0.00      -2.70    4.67   -0.28
#  49   -3.00   -0.84    1.96    0.66   -0.09    0.00    0.00      -1.31    2.13   -0.28
#  50   -0.19   -0.08    0.00    0.09   -0.02    0.00    0.00      -0.20    1.04   -0.21
#  51   -0.37   -0.04    0.00    0.22   -0.01    0.00    0.00      -0.20    4.39   -0.19
#  52   -0.03   -0.01    0.00    0.01   -0.01    0.00    0.00      -0.05    0.44   -0.28
#  53   -0.08   -0.04    0.00    0.03   -0.01    0.00    0.00      -0.09    0.83   -0.28
#  54   -0.04   -0.02    0.00    0.02   -0.01    0.00    0.00      -0.04    0.86   -0.21
#  55   -0.06   -0.01    0.00    0.06    0.00    0.00    0.00      -0.02    2.84   -0.19
#  56   -0.07   -0.02    0.00    0.02   -0.01    0.00    0.00      -0.08    0.70   -0.28
#  57   -0.09   -0.03    0.00    0.02   -0.01    0.00    0.00      -0.11    0.68   -0.28
#  58  -10.99   -0.02    0.00    2.89    0.09    0.00    0.00      -8.03   13.68    0.44
#  59   -2.57   -0.22    0.01    0.61   -0.06    0.00    0.00      -2.22    2.77   -0.25
#  60   -1.85   -0.13    0.00    0.23   -0.04    0.00    0.00      -1.78    1.81   -0.28
#  61   -0.65   -1.46    4.05    1.79   -0.13    0.00    0.00       3.61    3.83   -0.28
#  62   -1.80   -0.41    0.12    1.81   -0.11    0.00    0.00      -0.40    4.56   -0.28
#  63   -0.36   -0.55    0.44    1.21   -0.07    0.00    0.00       0.66    3.57   -0.21
#  64   -7.22   -0.02    0.00    5.65    0.22    0.00    0.00      -1.38   14.90    0.59
#  65   -9.61   -0.08    0.01    6.65    0.27    0.00    0.00      -2.76   14.65    0.59
#  66   -6.89   -0.53    0.15    2.95   -0.13    0.00    0.00      -4.45    6.19   -0.28
#  67   -8.38   -0.64    0.91    1.68   -0.09    0.00    0.00      -6.52    5.52   -0.28

@<TRIPOS>MOLECULE
          T528427        20
   67    70     0     0     0



@<TRIPOS>ATOM
      1 C1          2.3832    -6.7404    86.1763 C.3        1           0.0167
      2 O1          3.3117    -7.4922    86.9603 O.3        1          -0.2918
      3 C2          3.1984    -7.3962    88.3104 C.ar       1           0.1878
      4 C3          2.3884    -8.2826    89.0019 C.ar       1          -0.1958
      5 C4          2.2686    -8.1903    90.3732 C.ar       1          -0.0349
      6 C5          2.9639    -7.2020    91.0750 C.ar       1          -0.1588
      7 C6          3.7827    -6.3047    90.3876 C.ar       1          -0.0741
      8 C7          3.9062    -6.4030    89.0047 C.ar       1           0.0382
      9 N1          4.7109    -5.5306    88.3236 N.2        1          -0.4760
     10 C8          5.9853    -5.8269    88.1194 C.2        1           0.5193
     11 N2          6.4503    -7.0521    88.4678 N.pl3      1          -0.5760
     12 C9          7.7263    -7.3699    88.2713 C.2        1           0.3140
     13 C10         8.5881    -6.4322    87.7022 C.2        1          -0.1973
     14 C11         8.0887    -5.1778    87.3513 C.2        1           0.3252
     15 N3          6.8047    -4.9027    87.5598 N.pl3      1          -0.5222
     16 H1          6.4524    -4.0332    87.3134 H          1           0.4688
     17 C12        10.0161    -6.7640    87.4738 C.ar       1          -0.0228
     18 C13        10.9830    -5.7606    87.5217 C.ar       1          -0.1567
     19 C14        12.3111    -6.0706    87.3087 C.ar       1          -0.0608
     20 C15        12.6875    -7.3746    87.0474 C.ar       1          -0.1737
     21 C16        11.7307    -8.3813    86.9983 C.ar       1           0.2261
     22 C17        10.3946    -8.0789    87.2171 C.ar       1          -0.1835
     23 N4         12.1147    -9.6982    86.7341 N.pl3      1          -0.6320
     24 C18        13.5265   -10.0182    86.5087 C.3        1           0.0846
     25 C19        11.1057   -10.7591    86.6825 C.3        1           0.0844
     26 C20         2.8322    -7.1067    92.5423 C.2        1           0.5684
     27 O2          2.5609    -8.0968    93.1938 O.2        1          -0.5203
     28 N5          3.0125    -5.9223    93.1596 N.am       1          -0.7314
     29 C21         2.8818    -5.8278    94.6157 C.3        1           0.1650
     30 C22         4.2214    -6.0807    95.2578 C.ar       1          -0.1672
     31 C23         4.3239    -6.9182    96.3507 C.ar       1           0.2018
     32 C24         3.0860    -7.5798    96.8994 C.3        1          -0.1493
     33 N6          5.4917    -7.1473    96.9207 N.ar       1          -0.5046
     34 H2          5.5358    -7.7402    97.6871 H          1           0.4431
     35 C25         6.6049    -6.5879    96.4719 C.ar       1           0.4620
     36 N7          7.8139    -6.8574    97.1026 N.pl3      1          -0.8135
     37 C26         6.5753    -5.7334    95.3748 C.ar       1          -0.1976
     38 C27         5.3660    -5.4785    94.7530 C.ar       1           0.0559
     39 H3          2.5835    -6.9063    85.1178 H          1           0.1152
     40 H4          1.3679    -7.0618    86.4086 H          1           0.0644
     41 H5          2.4898    -5.6799    86.4045 H          1           0.0676
     42 H6          1.8484    -9.0486    88.4651 H          1           0.1527
     43 H7          1.6349    -8.8839    90.9059 H          1           0.1364
     44 H8          4.3212    -5.5395    90.9269 H          1           0.1472
     45 H9          5.8479    -7.7011    88.8634 H          1           0.4539
     46 H10         8.0929    -8.3467    88.5505 H          1           0.2196
     47 H11         8.7391    -4.4373    86.9098 H          1           0.2289
     48 H12        10.6928    -4.7404    87.7252 H          1           0.1237
     49 H13        13.0584    -5.2918    87.3457 H          1           0.1329
     50 H14        13.7279    -7.6120    86.8808 H          1           0.1325
     51 H15         9.6498    -8.8603    87.1839 H          1           0.1289
     52 H16        13.6311   -11.0866    86.3197 H          1           0.0564
     53 H17        13.8928    -9.4593    85.6477 H          1           0.0747
     54 H18        14.1059    -9.7468    87.3913 H          1           0.0737
     55 H19        11.5904   -11.7111    86.4661 H          1           0.0739
     56 H20        10.5946   -10.8214    87.6431 H          1           0.0611
     57 H21        10.3816   -10.5339    85.8995 H          1           0.0632
     58 H22         3.2289    -5.1325    92.6398 H          1           0.4023
     59 H23         2.5321    -4.8313    94.8852 H          1           0.0992
     60 H24         2.1653    -6.5712    94.9652 H          1           0.1028
     61 H25         3.3542    -8.2001    97.7546 H          1           0.1206
     62 H26         2.3747    -6.8160    97.2135 H          1           0.1004
     63 H27         2.6338    -8.2019    96.1270 H          1           0.1141
     64 H28         7.8395    -7.4529    97.8679 H          1           0.4242
     65 H29         8.6319    -6.4500    96.7775 H          1           0.4443
     66 H30         7.4846    -5.2784    95.0107 H          1           0.1856
     67 H31         5.3130    -4.8228    93.8964 H          1           0.1788
@<TRIPOS>BOND
     1    1    2 1
     2    1   39 1
     3    1   40 1
     4    1   41 1
     5    2    3 1
     6    3    8 ar
     7    3    4 ar
     8    4    5 ar
     9    4   42 1
    10    5    6 ar
    11    5   43 1
    12    6    7 ar
    13    6   26 1
    14    7    8 ar
    15    7   44 1
    16    8    9 1
    17    9   10 2
    18   10   15 1
    19   10   11 1
    20   11   12 1
    21   11   45 1
    22   12   13 2
    23   12   46 1
    24   13   14 1
    25   13   17 1
    26   14   15 2
    27   14   47 1
    28   15   16 1
    29   17   22 ar
    30   17   18 ar
    31   18   19 ar
    32   18   48 1
    33   19   20 ar
    34   19   49 1
    35   20   21 ar
    36   20   50 1
    37   21   22 ar
    38   21   23 1
    39   22   51 1
    40   23   24 1
    41   23   25 1
    42   24   52 1
    43   24   53 1
    44   24   54 1
    45   25   55 1
    46   25   56 1
    47   25   57 1
    48   26   27 2
    49   26   28 am
    50   28   29 1
    51   28   58 1
    52   29   30 1
    53   29   59 1
    54   29   60 1
    55   30   38 ar
    56   30   31 ar
    57   31   32 1
    58   31   33 ar
    59   32   61 1
    60   32   62 1
    61   32   63 1
    62   33   34 1
    63   33   35 ar
    64   35   36 1
    65   35   37 ar
    66   36   64 1
    67   36   65 1
    68   37   38 ar
    69   37   66 1
    70   38   67 1
##########                 Name:              T530222
##########          Protonation:                   13
##########               SMILES:   CC1(NC(=[NH2+])NC(=[NH2+])N1OCc2ccc3c(c2)OCO3)C
##########            Long Name:   1,3-benzodioxol-5-ylmethoxy)-6,6-dimethyl-1,3,5-triazinan-2-ylidene]ammonium
##########          FlexRecCode: 1
##########               Number:                  248
##########   Ligand Source File: /raidb/db2/rgc/tcams/tcams-0000636.db2.gz
##########           GlobalRank: 344
##########                 Rank:                    1
##########               Setnum:                   19
##########             Matchnum:                 2303
##########                Cloud:                    1
##########        Electrostatic:           -65.805336
##########        Van der Waals:           -20.215410
##########  Ligand Polar Desolv:            23.066977
########## Ligand Apolar Desolv:            -1.794015
##########      Internal Energy:             0.000000
##########      Receptor Energy: 0.0
########## Receptor Desolvation:             0.000000
########## Receptor Hydrophobic:             0.000000
##########         Total Energy: -64.75
##########        Ligand Charge:             2.000000
##########            Arbitrary:    +999.9990
##########     heavy atom count:   21
##########           pose count:    1
##########        Ligand Energy:             0.000000
# num electro vdwattr vdwrepu polsolv apolsol rdesolv rhydroe totalscore fullpol fullapo
#   1    3.27   -0.54    0.03   -2.59   -0.06    0.00    0.00       0.12   -8.27   -0.18
#   2   -7.68   -0.61    0.03    6.36   -0.13    0.00    0.00      -2.03   18.18   -0.38
#   3    3.15   -1.32    0.30   -3.44   -0.08    0.00    0.00      -1.38   -6.95   -0.16
#   4   19.58   -1.40    0.13  -13.22    0.62    0.00    0.00       5.70  -32.57    1.52
#   5  -27.03   -1.59    0.27   15.41   -1.84    0.00    0.00     -14.78   37.90   -4.53
#   6   25.05   -3.96    4.22  -15.07    0.42    0.00    0.00      10.67  -31.76    0.89
#   7  -14.69   -0.08    0.01   10.79    0.27    0.00    0.00      -3.70   23.72    0.60
#   8  -21.83   -0.12    0.02   11.25    0.27    0.00    0.00     -10.41   24.67    0.60
#   9   26.08   -2.00    1.53  -10.33    0.37    0.00    0.00      15.67  -31.76    1.15
#  10  -16.61   -0.70    0.05    8.38   -1.00    0.00    0.00      -9.88   36.78   -4.37
#  11   10.43   -0.57    0.03   -6.57    0.19    0.00    0.00       3.50  -31.53    0.89
#  12   -9.05   -0.01    0.00    2.10    0.05    0.00    0.00      -6.91   24.86    0.60
#  13   -2.91   -0.01    0.00    2.92    0.06    0.00    0.00       0.06   22.52    0.45
#  14    7.08   -0.83    0.07   -5.75    0.23    0.00    0.00       0.80  -21.68    0.87
#  15    0.45   -1.26    0.38   -1.23    0.14    0.00    0.00      -1.52   -3.82    0.43
#  16   -0.79   -0.69    0.04    0.80   -0.05    0.00    0.00      -0.69    2.23   -0.13
#  17    1.02   -1.31    0.14   -0.63   -0.14    0.00    0.00      -0.92   -1.73   -0.39
#  18    0.89   -1.61    0.30   -0.69   -0.21    0.00    0.00      -1.33   -1.51   -0.46
#  19    1.02   -1.82    0.60   -1.37   -0.23    0.00    0.00      -1.79   -2.81   -0.47
#  20   -0.53   -1.55    0.21   -0.53   -0.17    0.00    0.00      -2.58   -1.02   -0.33
#  21    2.39   -1.67    0.19   -2.26    0.31    0.00    0.00      -1.04   -3.84    0.52
#  22   -3.04   -1.96    1.33    1.22    0.01    0.00    0.00      -2.44    2.34    0.02
#  23    2.02   -2.36    1.41   -1.96    0.24    0.00    0.00      -0.65   -4.23    0.52
#  24   -0.17   -1.65    0.26   -0.41   -0.14    0.00    0.00      -2.11   -0.99   -0.33
#  25    0.22   -1.67    0.39   -0.63   -0.16    0.00    0.00      -1.86   -1.78   -0.46
#  26   -2.81   -0.20    0.02    0.69   -0.05    0.00    0.00      -2.36    3.59   -0.27
#  27   -1.94   -0.10    0.00    0.37   -0.02    0.00    0.00      -1.69    4.14   -0.28
#  28   -0.67   -0.25    0.05    1.24   -0.06    0.00    0.00       0.31    5.25   -0.26
#  29   -2.15   -0.49    0.14    1.10   -0.11    0.00    0.00      -1.52    2.70   -0.27
#  30   -2.36   -0.52    0.20    1.00   -0.13    0.00    0.00      -1.81    2.15   -0.28
#  31   -1.21   -0.58    0.28    1.57   -0.11    0.00    0.00      -0.06    3.91   -0.28
#  32  -13.49   -0.04    0.00    7.70    0.21    0.00    0.00      -5.62   21.44    0.58
#  33  -28.12   -0.17    0.09    7.55    0.17    0.00    0.00     -20.48   26.46    0.59
#  34   -1.82   -0.21    0.02    0.89   -0.05    0.00    0.00      -1.16    5.00   -0.27
#  35   -1.22   -0.23    0.02    1.68   -0.05    0.00    0.00       0.20    7.23   -0.22
#  36   -2.19   -0.30    0.02    3.00   -0.10    0.00    0.00       0.43    8.08   -0.28
#  37   -1.76   -0.39    0.10    0.91   -0.11    0.00    0.00      -1.25    2.36   -0.28
#  38   -2.35   -0.61    0.45    0.78   -0.11    0.00    0.00      -1.84    1.91   -0.28
#  39   -2.11   -1.34    3.41    0.87   -0.16    0.00    0.00       0.67    1.55   -0.28
#  40    0.06   -0.48    0.29    1.15   -0.07    0.00    0.00       0.94    4.59   -0.28

@<TRIPOS>MOLECULE
          T530222        13
   40    42     0     0     0



@<TRIPOS>ATOM
      1 C1          1.9678    -6.7860    94.9294 C.3        1          -0.1923
      2 C2          3.2589    -6.3425    95.6202 C.3        1           0.4026
      3 C3          3.1263    -6.5243    97.1336 C.3        1          -0.1745
      4 N1          3.5334    -4.9281    95.3071 N.pl3      1          -0.7064
      5 C4          4.0098    -4.6428    94.0350 C.cat      1           0.7710
      6 N2          3.5506    -3.6440    93.3364 N.pl3      1          -0.6669
      7 H1          2.8558    -3.0747    93.7026 H          1           0.4685
      8 H2          3.9033    -3.4694    92.4498 H          1           0.4604
      9 N3          5.0068    -5.4856    93.5472 N.pl3      1          -0.6710
     10 C5          4.8643    -6.8391    93.8475 C.cat      1           0.7646
     11 N4          5.1566    -7.7698    92.9845 N.pl3      1          -0.6728
     12 H3          5.4839    -7.5289    92.1038 H          1           0.4600
     13 H4          5.0471    -8.7036    93.2225 H          1           0.4602
     14 N5          4.3938    -7.1394    95.1183 N.pl3      1          -0.4874
     15 O1          4.9784    -8.1657    95.8991 O.3        1          -0.0672
     16 C6          6.3641    -7.9625    96.1827 C.3        1           0.0608
     17 C7          6.9965    -9.2759    96.5652 C.ar       1          -0.1207
     18 C8          7.8392    -9.3428    97.6591 C.ar       1          -0.0767
     19 C9          8.4223   -10.5454    98.0146 C.ar       1          -0.1028
     20 C10         8.1619   -11.6854    97.2741 C.ar       1           0.0741
     21 O2          8.5883   -12.9742    97.3929 O.3        1          -0.2968
     22 C11         8.3677   -13.5960    96.1180 C.3        1           0.2112
     23 O3          7.2313   -12.8663    95.6315 O.3        1          -0.3004
     24 C12         7.3126   -11.6179    96.1715 C.ar       1           0.0391
     25 C13         6.7278   -10.4122    95.8244 C.ar       1          -0.0714
     26 H5          1.1332    -6.1937    95.3044 H          1           0.1135
     27 H6          2.0626    -6.6398    93.8534 H          1           0.1244
     28 H7          1.7878    -7.8406    95.1381 H          1           0.0696
     29 H8          4.0487    -6.2069    97.6198 H          1           0.1105
     30 H9          2.2959    -5.9212    97.5005 H          1           0.1012
     31 H10         2.9399    -7.5745    97.3584 H          1           0.1154
     32 H11         3.3876    -4.2273    95.9617 H          1           0.4663
     33 H12         5.7556    -5.1500    93.0298 H          1           0.4808
     34 H13         6.8613    -7.5637    95.2985 H          1           0.1018
     35 H14         6.4666    -7.2565    97.0067 H          1           0.0779
     36 H15         8.0431    -8.4537    98.2372 H          1           0.1386
     37 H16         9.0806   -10.5948    98.8693 H          1           0.1498
     38 H17         9.2284   -13.4595    95.4633 H          1           0.1460
     39 H18         8.1314   -14.6535    96.2352 H          1           0.0973
     40 H19         6.0654   -10.3583    94.9731 H          1           0.1416
@<TRIPOS>BOND
     1    1    2 1
     2    1   26 1
     3    1   27 1
     4    1   28 1
     5    2   14 1
     6    2    3 1
     7    2    4 1
     8    3   29 1
     9    3   30 1
    10    3   31 1
    11    4    5 1
    12    4   32 1
    13    5    6 2
    14    5    9 1
    15    6    7 1
    16    6    8 1
    17    9   10 1
    18    9   33 1
    19   10   11 2
    20   10   14 1
    21   11   12 1
    22   11   13 1
    23   14   15 1
    24   15   16 1
    25   16   17 1
    26   16   34 1
    27   16   35 1
    28   17   25 ar
    29   17   18 ar
    30   18   19 ar
    31   18   36 1
    32   19   20 ar
    33   19   37 1
    34   20   24 ar
    35   20   21 1
    36   21   22 1
    37   22   23 1
    38   22   38 1
    39   22   39 1
    40   23   24 1
    41   24   25 ar
    42   25   40 1
##########                 Name:              T536176
##########          Protonation:                   87
##########               SMILES:   COc1cc\2c(cc1OC)[nH]c([nH+]/c2=N\Cc3ccc(cc3)C#N)NCCc4ccccc4
##########            Long Name:   y-2-(phenethylamino)-1H-quinazolin-3-ium-4-ylidene]amino]methyl]benzonitrile
##########          FlexRecCode: 1
##########               Number:                   16
##########   Ligand Source File: /raidb/db2/rgc/tcams/tcams-0001471.db2.gz
##########           GlobalRank: 346
##########                 Rank:                    1
##########               Setnum:                  134
##########             Matchnum:                 1720
##########                Cloud:                    1
##########        Electrostatic:           -40.634476
##########        Van der Waals:           -29.008717
##########  Ligand Polar Desolv:             8.075134
########## Ligand Apolar Desolv:            -3.158169
##########      Internal Energy:             0.000000
##########      Receptor Energy: 0.0
########## Receptor Desolvation:             0.000000
########## Receptor Hydrophobic:             0.000000
##########         Total Energy: -64.73
##########        Ligand Charge:             1.000000
##########            Arbitrary:    +999.9990
##########     heavy atom count:   33
##########           pose count:    1
##########        Ligand Energy:             0.000000
# num electro vdwattr vdwrepu polsolv apolsol rdesolv rhydroe totalscore fullpol fullapo
#   1   -0.39   -1.09    0.14    0.01    0.02    0.00    0.00      -1.32    0.01    0.03
#   2    7.11   -1.88    1.47   -1.55    0.24    0.00    0.00       5.39   -3.84    0.60
#   3   -3.02   -1.03    0.12    0.52   -0.10    0.00    0.00      -3.51    1.57   -0.31
#   4    3.87   -1.00    0.07   -1.15   -0.14    0.00    0.00       1.65   -3.43   -0.42
#   5   -2.90   -1.08    0.18    1.37   -0.21    0.00    0.00      -2.64    4.75   -0.72
#   6    1.18   -1.34    0.61   -0.55   -0.10    0.00    0.00      -0.20   -2.18   -0.41
#   7    0.43   -1.30    0.88   -0.29   -0.09    0.00    0.00      -0.38   -1.26   -0.40
#   8   -0.90   -0.99    0.19    0.06   -0.09    0.00    0.00      -1.74    0.20   -0.31
#   9    1.67   -0.94    0.14   -0.94    0.20    0.00    0.00       0.12   -2.89    0.61
#  10   -0.02   -0.55    0.06    0.04    0.01    0.00    0.00      -0.46    0.15    0.03
#  11   -8.81   -1.27    0.28    2.69   -0.60    0.00    0.00      -7.73    9.45   -2.12
#  12    6.83   -0.95    0.11   -2.79    0.79    0.00    0.00       3.99  -10.59    2.98
#  13   -1.60   -0.75    0.13    0.41   -0.13    0.00    0.00      -1.95    1.52   -0.48
#  14    0.35   -0.67    0.06   -0.15   -0.08    0.00    0.00      -0.48   -0.72   -0.38
#  15    0.44   -1.15    0.27   -0.40   -0.12    0.00    0.00      -0.96   -1.51   -0.45
#  16    0.26   -1.06    0.17   -0.25   -0.12    0.00    0.00      -1.00   -0.93   -0.45
#  17    0.02   -0.69    0.09   -0.16   -0.08    0.00    0.00      -0.81   -0.80   -0.40
#  18    0.15   -0.29    0.01   -0.11   -0.05    0.00    0.00      -0.30   -0.99   -0.45
#  19    0.35   -0.29    0.01   -0.20   -0.05    0.00    0.00      -0.19   -1.79   -0.45
#  20   -0.66   -1.39    0.64    0.35   -0.39    0.00    0.00      -1.44    1.33   -1.46
#  21    0.99   -1.94    0.90   -0.05    0.24    0.00    0.00       0.14   -0.14    0.71
#  22   23.27   -2.29    1.41   -5.06    0.29    0.00    0.00      17.62  -16.68    0.95
#  23  -20.87   -0.07    0.01    3.58    0.07    0.00    0.00     -17.28   13.74    0.26
#  24  -26.81   -1.75    0.68    7.66   -1.65    0.00    0.00     -21.89   22.23   -4.80
#  25   29.63   -2.81    3.28   -8.58    0.72    0.00    0.00      22.25  -20.33    1.71
#  26   -2.75   -1.23    0.26    1.13   -0.17    0.00    0.00      -2.77    2.47   -0.38
#  27    1.70   -0.70    0.05   -0.76   -0.08    0.00    0.00       0.20   -2.15   -0.23
#  28    1.62   -0.89    0.06   -0.45   -0.11    0.00    0.00       0.22   -1.45   -0.36
#  29    1.39   -0.81    0.10   -0.50   -0.11    0.00    0.00       0.07   -2.00   -0.45
#  30    1.08   -0.89    0.11   -0.47   -0.12    0.00    0.00      -0.29   -1.91   -0.47
#  31    1.02   -1.35    0.45   -0.49   -0.13    0.00    0.00      -0.51   -1.76   -0.47
#  32    1.34   -1.38    0.27   -0.65   -0.16    0.00    0.00      -0.57   -1.92   -0.47
#  33    1.55   -1.11    0.08   -0.74   -0.17    0.00    0.00      -0.39   -1.98   -0.45
#  34   15.99   -1.13    0.10   -5.58    0.35    0.00    0.00       9.74  -16.51    1.05
#  35   -1.55   -0.39    0.06    0.72   -0.10    0.00    0.00      -1.26    1.86   -0.27
#  36   -1.53   -0.31    0.02    0.61   -0.09    0.00    0.00      -1.30    1.83   -0.27
#  37   -2.58   -0.46    0.20    0.41   -0.09    0.00    0.00      -2.53    1.23   -0.28
#  38   -4.10   -0.24    0.02    1.37   -0.06    0.00    0.00      -3.01    5.33   -0.22
#  39   -0.29   -0.17    0.05    0.30   -0.03    0.00    0.00      -0.14    2.24   -0.20
#  40   -0.06   -0.20    0.03    0.20   -0.06    0.00    0.00      -0.10    0.89   -0.27
#  41   -0.06   -0.21    0.03    0.23   -0.06    0.00    0.00      -0.08    0.98   -0.26
#  42   -0.15   -0.07    0.00    0.06   -0.02    0.00    0.00      -0.18    0.96   -0.28
#  43   -1.69   -0.73    0.53    1.01   -0.06    0.00    0.00      -0.94    3.06   -0.19
#  44   -2.72   -0.13    0.01    0.30   -0.03    0.00    0.00      -2.58    2.49   -0.28
#  45   -2.25   -0.47    0.35    0.60   -0.07    0.00    0.00      -1.84    2.45   -0.28
#  46   -0.67   -0.44    0.23    0.30   -0.07    0.00    0.00      -0.64    1.22   -0.28
#  47   -0.23   -0.03    0.00    0.07   -0.01    0.00    0.00      -0.20    2.10   -0.28
#  48   -0.37   -0.03    0.00    0.17   -0.01    0.00    0.00      -0.25    4.67   -0.28
#  49  -27.02   -0.20    0.14    5.52    0.20    0.00    0.00     -21.37   16.08    0.57
#  50   -2.93   -0.59    0.36    1.62   -0.12    0.00    0.00      -1.65    3.76   -0.27
#  51   -3.02   -0.58    0.19    1.65   -0.11    0.00    0.00      -1.87    4.03   -0.27
#  52   -1.71   -0.30    0.03    1.06   -0.09    0.00    0.00      -1.02    3.18   -0.28
#  53   -1.69   -0.14    0.00    0.40   -0.04    0.00    0.00      -1.46    3.08   -0.28
#  54   -1.68   -0.11    0.01    0.32   -0.03    0.00    0.00      -1.50    3.12   -0.28
#  55   -1.00   -0.12    0.01    0.15   -0.03    0.00    0.00      -0.99    1.26   -0.28
#  56   -1.11   -0.31    0.17    0.13   -0.05    0.00    0.00      -1.17    0.75   -0.28
#  57   -1.56   -0.29    0.05    0.27   -0.06    0.00    0.00      -1.59    1.26   -0.28
#  58   -1.86   -0.25    0.02    0.87   -0.07    0.00    0.00      -1.30    3.24   -0.28
#  59  -12.29   -0.02    0.00    3.80    0.14    0.00    0.00      -8.37   15.77    0.58

@<TRIPOS>MOLECULE
          T536176        87
   59    62     0     0     0



@<TRIPOS>ATOM
      1 C1         -2.3492    -3.5791    92.9804 C.3        1           0.0162
      2 O1         -1.7888    -4.8907    93.0694 O.3        1          -0.2844
      3 C2         -0.5262    -5.0553    92.5952 C.ar       1           0.1731
      4 C3          0.5551    -4.8816    93.4432 C.ar       1          -0.1916
      5 C4          1.8420    -5.0496    92.9591 C.ar       1           0.1492
      6 C5          2.0425    -5.3949    91.6123 C.ar       1          -0.0866
      7 C6          0.9523    -5.5683    90.7646 C.ar       1          -0.0880
      8 C7         -0.3277    -5.4040    91.2586 C.ar       1           0.1112
      9 O2         -1.3984    -5.5775    90.4374 O.3        1          -0.2910
     10 C8         -1.1247    -5.9338    89.0808 C.3        1           0.0178
     11 C9          3.4320    -5.5638    91.1374 C.2        1           0.3957
     12 N1          3.6822    -5.8861    89.8875 N.2        1          -0.4835
     13 C10         5.0643    -5.9224    89.4030 C.3        1           0.0773
     14 C11         5.0763    -6.3167    87.9484 C.ar       1          -0.0689
     15 C12         5.8764    -5.6272    87.0547 C.ar       1          -0.0894
     16 C13         5.8922    -5.9827    85.7219 C.ar       1          -0.0650
     17 C14         5.0988    -7.0414    85.2757 C.ar       1          -0.0075
     18 C15         4.2940    -7.7332    86.1831 C.ar       1          -0.0677
     19 C16         4.2915    -7.3701    87.5140 C.ar       1          -0.1136
     20 C17         5.1098    -7.4157    83.8936 C.1        1           0.2377
     21 N2          5.1187    -7.7127    82.7970 N.1        1          -0.3919
     22 N3          4.4381    -5.3786    92.0186 N.pl3      1          -0.6110
     23 H1          5.3545    -5.4865    91.7194 H          1           0.4418
     24 C18         4.2080    -5.0560    93.2695 C.cat      1           0.7273
     25 N4          5.2773    -4.8835    94.1069 N.pl3      1          -0.6804
     26 C19         5.0912    -4.9597    95.5580 C.3        1           0.0885
     27 C20         4.5489    -6.3409    95.9308 C.3        1          -0.0846
     28 C21         5.5282    -7.3997    95.4936 C.ar       1          -0.1061
     29 C22         5.4308    -7.9519    94.2300 C.ar       1          -0.1112
     30 C23         6.3290    -8.9231    93.8290 C.ar       1          -0.1146
     31 C24         7.3248    -9.3419    94.6915 C.ar       1          -0.1067
     32 C25         7.4228    -8.7892    95.9547 C.ar       1          -0.1145
     33 C26         6.5272    -7.8149    96.3541 C.ar       1          -0.1110
     34 N5          2.9545    -4.8851    93.7732 N.pl3      1          -0.5919
     35 H2         -3.3581    -3.5864    93.3928 H          1           0.0639
     36 H3         -1.7312    -2.8808    93.5446 H          1           0.0639
     37 H4         -2.3859    -3.2697    91.9359 H          1           0.1154
     38 H5          0.3955    -4.6158    94.4778 H          1           0.1615
     39 H6          1.1056    -5.8338    89.7290 H          1           0.1709
     40 H7         -2.0632    -6.0409    88.5368 H          1           0.0638
     41 H8         -0.5217    -5.1543    88.6151 H          1           0.0640
     42 H9         -0.5804    -6.8779    89.0559 H          1           0.1131
     43 H10         5.5147    -4.9362    89.5158 H          1           0.0430
     44 H11         5.6332    -6.6502    89.9814 H          1           0.1220
     45 H12         6.4896    -4.8085    87.4012 H          1           0.1410
     46 H13         6.5168    -5.4432    85.0253 H          1           0.1417
     47 H14         3.6778    -8.5530    85.8447 H          1           0.1376
     48 H15         3.6727    -7.9069    88.2178 H          1           0.1209
     49 H16         6.1583    -4.7107    93.7394 H          1           0.4401
     50 H17         6.0474    -4.7982    96.0560 H          1           0.0972
     51 H18         4.3829    -4.1938    95.8742 H          1           0.0967
     52 H19         4.4105    -6.3977    97.0104 H          1           0.0933
     53 H20         3.5929    -6.5025    95.4328 H          1           0.0934
     54 H21         4.6528    -7.6246    93.5562 H          1           0.1236
     55 H22         6.2525    -9.3550    92.8420 H          1           0.1283
     56 H23         8.0262   -10.1013    94.3784 H          1           0.1284
     57 H24         8.2006    -9.1166    96.6286 H          1           0.1282
     58 H25         6.6060    -7.3804    97.3397 H          1           0.1235
     59 H26         2.8381    -4.6464    94.7061 H          1           0.4494
@<TRIPOS>BOND
     1    1    2 1
     2    1   35 1
     3    1   36 1
     4    1   37 1
     5    2    3 1
     6    3    8 ar
     7    3    4 ar
     8    4    5 ar
     9    4   38 1
    10    5   34 1
    11    5    6 ar
    12    6    7 ar
    13    6   11 1
    14    7    8 ar
    15    7   39 1
    16    8    9 1
    17    9   10 1
    18   10   40 1
    19   10   41 1
    20   10   42 1
    21   11   12 2
    22   11   22 1
    23   12   13 1
    24   13   14 1
    25   13   43 1
    26   13   44 1
    27   14   19 ar
    28   14   15 ar
    29   15   16 ar
    30   15   45 1
    31   16   17 ar
    32   16   46 1
    33   17   18 ar
    34   17   20 1
    35   18   19 ar
    36   18   47 1
    37   19   48 1
    38   20   21 3
    39   22   23 1
    40   22   24 2
    41   24   25 1
    42   24   34 1
    43   25   26 1
    44   25   49 1
    45   26   27 1
    46   26   50 1
    47   26   51 1
    48   27   28 1
    49   27   52 1
    50   27   53 1
    51   28   33 ar
    52   28   29 ar
    53   29   30 ar
    54   29   54 1
    55   30   31 ar
    56   30   55 1
    57   31   32 ar
    58   31   56 1
    59   32   33 ar
    60   32   57 1
    61   33   58 1
    62   34   59 1
##########                 Name:              T537580
##########          Protonation:                   69
##########               SMILES:   cc1)NC(=O)N[C@@H](Cc2ccccc2)C(=O)N[C@@H]3CC[NH+](C3)Cc4ccc(cc4)OCCC[NH+](C)C
##########            Long Name:   ropanoyl]amino]pyrrolidin-1-ium-1-yl]methyl]phenoxy]propyl-dimethyl-ammonium
##########          FlexRecCode: 1
##########               Number:                  336
##########   Ligand Source File: /raidb/db2/rgc/tcams/tcams-0001903.db2.gz
##########           GlobalRank: 346
##########                 Rank:                    1
##########               Setnum:                  164
##########             Matchnum:                 4448
##########                Cloud:                    1
##########        Electrostatic:           -48.673225
##########        Van der Waals:           -26.760483
##########  Ligand Polar Desolv:            14.474319
########## Ligand Apolar Desolv:            -3.774262
##########      Internal Energy:             0.000000
##########      Receptor Energy: 0.0
########## Receptor Desolvation:             0.000000
########## Receptor Hydrophobic:             0.000000
##########         Total Energy: -64.73
##########        Ligand Charge:             2.000000
##########            Arbitrary:    +999.9990
##########     heavy atom count:   45
##########           pose count:    1
##########        Ligand Energy:             0.000000
# num electro vdwattr vdwrepu polsolv apolsol rdesolv rhydroe totalscore fullpol fullapo
#   1    0.18   -0.54    0.04   -0.28   -0.06    0.00    0.00      -0.65   -1.03   -0.21
#   2   -0.05   -1.28    0.59    0.05   -0.04    0.00    0.00      -0.72    0.17   -0.12
#   3    0.33   -1.64    1.06   -0.28    0.09    0.00    0.00      -0.45   -0.95    0.29
#   4   -0.77   -2.73    2.63    0.22   -0.06    0.00    0.00      -0.71    0.59   -0.16
#   5    0.97   -4.28    2.82    0.43   -0.17    0.00    0.00      -0.24    0.96   -0.39
#   6    0.23   -1.44    0.39   -0.27   -0.13    0.00    0.00      -1.23   -0.87   -0.41
#   7    0.08   -1.85    0.85   -0.08   -0.16    0.00    0.00      -1.17   -0.24   -0.46
#   8    0.24   -0.83    0.09   -0.31   -0.11    0.00    0.00      -0.92   -1.16   -0.40
#   9   -0.25   -0.44    0.03    0.36   -0.10    0.00    0.00      -0.40    2.32   -0.68
#  10    0.63   -0.23    0.01   -0.77    0.14    0.00    0.00      -0.22   -9.01    1.69
#  11   -0.73   -0.15    0.00    0.53   -0.09    0.00    0.00      -0.44    9.43   -1.59
#  12    0.38   -0.08    0.00   -0.23    0.01    0.00    0.00       0.08   -6.16    0.26
#  13    1.12   -0.24    0.01   -1.19    0.19    0.00    0.00      -0.11  -12.43    2.02
#  14   -0.24   -0.15    0.00    0.32   -0.03    0.00    0.00      -0.10    3.12   -0.26
#  15    0.11   -0.20    0.01   -0.18   -0.02    0.00    0.00      -0.29   -1.64   -0.22
#  16    0.08   -0.32    0.01   -0.11   -0.03    0.00    0.00      -0.36   -0.87   -0.23
#  17    0.17   -0.89    0.17   -0.34   -0.10    0.00    0.00      -0.99   -1.50   -0.45
#  18    0.23   -1.10    0.21   -0.43   -0.14    0.00    0.00      -1.22   -1.47   -0.47
#  19    0.01   -0.95    0.19   -0.30   -0.11    0.00    0.00      -1.16   -1.24   -0.47
#  20   -0.03   -0.50    0.06   -0.20   -0.08    0.00    0.00      -0.74   -1.20   -0.47
#  21    0.03   -0.22    0.00   -0.12   -0.03    0.00    0.00      -0.33   -1.37   -0.32
#  22   -1.20   -0.53    0.04    2.52   -0.12    0.00    0.00       0.71   12.83   -0.60
#  23    1.75   -1.16    0.24   -3.11    0.10    0.00    0.00      -2.18  -11.39    0.37
#  24    2.04   -0.49    0.02   -3.91    0.38    0.00    0.00      -1.96  -20.91    2.03
#  25   -2.48   -0.71    0.10    1.16   -0.11    0.00    0.00      -2.03    3.62   -0.33
#  26    3.35   -1.04    0.21   -2.06   -0.11    0.00    0.00       0.36   -5.31   -0.28
#  27    0.27   -0.79    0.18    0.07   -0.14    0.00    0.00      -0.41    0.22   -0.45
#  28    8.04   -0.60    0.06   -3.54    0.11    0.00    0.00       4.07  -14.82    0.45
#  29  -12.10   -0.02    0.00    4.20    0.12    0.00    0.00      -7.80   19.87    0.56
#  30   -0.63   -0.21    0.00    0.32   -0.04    0.00    0.00      -0.55    2.52   -0.33
#  31    3.13   -0.39    0.02   -0.87   -0.05    0.00    0.00       1.83   -5.50   -0.34
#  32    0.82   -0.72    0.11   -0.36   -0.08    0.00    0.00      -0.22   -1.80   -0.40
#  33    2.32   -0.73    0.10   -1.25   -0.10    0.00    0.00       0.33   -5.71   -0.46
#  34   -2.55   -0.49    0.02    0.48   -0.06    0.00    0.00      -2.59    2.55   -0.31
#  35    3.24   -0.54    0.05   -1.84    0.18    0.00    0.00       1.09   -9.15    0.89
#  36   -0.76   -0.55    0.07    0.28   -0.02    0.00    0.00      -0.99    1.09   -0.09
#  37    1.98   -0.63    0.08   -1.43   -0.06    0.00    0.00      -0.07   -4.99   -0.22
#  38    0.16   -0.52    0.02    0.18   -0.11    0.00    0.00      -0.27    0.60   -0.35
#  39    9.47   -1.08    0.10   -5.76    0.19    0.00    0.00       2.92  -13.96    0.46
#  40  -10.89   -0.03    0.00    6.60    0.20    0.00    0.00      -4.12   18.41    0.56
#  41    1.31   -1.85    0.96   -0.78   -0.22    0.00    0.00      -0.57   -1.70   -0.48
#  42    1.30   -0.82    0.08   -0.92   -0.21    0.00    0.00      -0.57   -2.09   -0.47
#  43    3.33   -0.39    0.02   -0.96   -0.06    0.00    0.00       1.94   -6.84   -0.42
#  44    0.76   -0.37    0.02   -0.25   -0.06    0.00    0.00       0.09   -1.80   -0.45
#  45    0.40   -0.49    0.03    0.14   -0.13    0.00    0.00      -0.05    0.48   -0.45
#  46    0.14   -0.43    0.04   -0.23   -0.07    0.00    0.00      -0.55   -1.43   -0.46
#  47    0.03   -0.76    0.14   -0.06   -0.10    0.00    0.00      -0.76   -0.29   -0.46
#  48   -0.07   -0.19    0.02    0.11   -0.05    0.00    0.00      -0.19    0.57   -0.28
#  49   -0.07   -0.06    0.00    0.03   -0.01    0.00    0.00      -0.12    0.60   -0.28
#  50   -0.14   -0.19    0.01    0.20   -0.06    0.00    0.00      -0.18    0.98   -0.28
#  51   -0.02   -0.25    0.06    0.03   -0.06    0.00    0.00      -0.24    0.17   -0.28
#  52   -0.06   -1.10    1.21    0.08   -0.11    0.00    0.00       0.02    0.20   -0.28
#  53   -0.37   -0.75    0.58    0.39   -0.10    0.00    0.00      -0.25    1.01   -0.27
#  54   -0.28   -0.15    0.01    0.19   -0.04    0.00    0.00      -0.27    1.18   -0.22
#  55   -0.26    0.00    0.00    0.33    0.03    0.00    0.00       0.09    7.31    0.59
#  56   -0.78   -0.01    0.00    0.61    0.04    0.00    0.00      -0.13    7.64    0.52
#  57   -0.15   -0.02    0.00    0.07   -0.01    0.00    0.00      -0.12    2.40   -0.26
#  58   -0.07   -0.03    0.00    0.06   -0.01    0.00    0.00      -0.05    1.88   -0.28
#  59   -0.13   -0.14    0.03    0.53   -0.03    0.00    0.00       0.27    4.68   -0.25
#  60   -0.27   -0.56    0.72    0.94   -0.07    0.00    0.00       0.76    3.70   -0.28
#  61   -0.67   -0.47    0.23    0.42   -0.09    0.00    0.00      -0.58    1.31   -0.28
#  62    0.00   -0.40    0.20    0.09   -0.07    0.00    0.00      -0.19    0.34   -0.28
#  63    0.12   -0.16    0.06    0.06   -0.04    0.00    0.00       0.03    0.42   -0.28
#  64   -0.01   -0.02    0.00    0.04   -0.01    0.00    0.00       0.00    1.45   -0.28
#  65   -1.07    0.00    0.00    0.89    0.03    0.00    0.00      -0.15   15.17    0.53
#  66   -3.84   -0.66    0.63    0.84   -0.08    0.00    0.00      -3.11    2.73   -0.26
#  67   -1.63   -0.28    0.03    1.27   -0.09    0.00    0.00      -0.70    3.83   -0.28
#  68   -3.46   -0.65    0.35    0.62   -0.12    0.00    0.00      -3.26    1.43   -0.28
#  69   -1.67   -0.13    0.01    0.77   -0.02    0.00    0.00      -1.04    5.71   -0.17
#  70   -3.40   -0.60    0.53    1.69   -0.09    0.00    0.00      -1.87    5.21   -0.28
#  71   -1.33   -0.05    0.00    0.36   -0.01    0.00    0.00      -1.03    8.14   -0.28
#  72   -1.24   -0.04    0.00    0.28   -0.01    0.00    0.00      -1.01    7.06   -0.27
#  73   -1.88   -0.24    0.09    0.93   -0.04    0.00    0.00      -1.14    5.82   -0.24
#  74   -2.06   -0.23    0.06    0.33   -0.05    0.00    0.00      -1.95    2.00   -0.28
#  75   -0.44   -0.23    0.06    0.48   -0.05    0.00    0.00      -0.18    2.88   -0.27
#  76   -1.71   -0.16    0.01    0.37   -0.04    0.00    0.00      -1.53    2.49   -0.27
#  77   -0.36   -0.36    0.23    0.63   -0.04    0.00    0.00       0.10    2.94   -0.21
#  78   -1.47   -0.20    0.01    0.72   -0.06    0.00    0.00      -1.00    3.18   -0.28
#  79   -4.29   -0.21    0.01    1.29   -0.06    0.00    0.00      -3.25    6.52   -0.28
#  80   -2.92   -0.11    0.00    0.59   -0.03    0.00    0.00      -2.47    5.75   -0.28
#  81   -2.95   -1.44    4.19    1.96   -0.13    0.00    0.00       1.64    4.39   -0.28
#  82   -4.20   -0.91    0.90    1.87   -0.12    0.00    0.00      -2.47    4.21   -0.28
#  83   -3.12   -0.28    0.03    1.35   -0.07    0.00    0.00      -2.10    5.06   -0.28
#  84   -4.26   -0.50    0.27    1.74   -0.11    0.00    0.00      -2.86    4.29   -0.28
#  85   -2.65   -0.16    0.01    0.67   -0.04    0.00    0.00      -2.17    4.40   -0.28
#  86   -2.03   -0.26    0.02    1.36   -0.07    0.00    0.00      -0.97    4.22   -0.22
#  87   -1.83   -0.06    0.00    0.25   -0.01    0.00    0.00      -1.65    4.48   -0.22
#  88   -1.67   -0.06    0.00    0.40   -0.02    0.00    0.00      -1.35    6.79   -0.28
#  89   -3.93   -0.20    0.01    1.98   -0.07    0.00    0.00      -2.21    7.72   -0.28
#  90   -1.80   -0.13    0.01    1.02   -0.03    0.00    0.00      -0.93    8.19   -0.26
#  91   -0.08   -0.04    0.00    0.12   -0.01    0.00    0.00      -0.01    2.45   -0.28
#  92   -0.09   -0.13    0.03    0.08   -0.04    0.00    0.00      -0.15    0.62   -0.27

@<TRIPOS>MOLECULE
          T537580        69
   92    95     0     0     0



@<TRIPOS>ATOM
      1 C1          3.5859    -9.3626    81.8839 C.3        1          -0.1527
      2 C2          4.2747   -10.4032    80.9987 C.3        1           0.0607
      3 O1          5.4059   -10.9404    81.6869 O.3        1          -0.3498
      4 C3          6.5842   -10.3117    81.5112 C.2        1           0.5085
      5 O2          6.6496    -9.3326    80.7938 O.2        1          -0.5038
      6 C4          7.7946   -10.8092    82.1906 C.ar       1          -0.1430
      7 C5          9.0170   -10.1537    82.0143 C.ar       1          -0.0382
      8 C6         10.1446   -10.6214    82.6501 C.ar       1          -0.1340
      9 C7         10.0690   -11.7452    83.4674 C.ar       1           0.2044
     10 N1         11.2131   -12.2159    84.1098 N.am       1          -0.6824
     11 C8         11.8759   -11.4219    84.9738 C.2        1           0.7084
     12 O3         12.8738   -11.8326    85.5339 O.2        1          -0.5417
     13 N2         11.4326   -10.1726    85.2170 N.am       1          -0.7292
     14 C9         12.1530    -9.3095    86.1563 C.3        1           0.1570
     15 C10        13.5865    -9.1034    85.6629 C.3        1          -0.0845
     16 C11        14.3274    -8.2155    86.6292 C.ar       1          -0.0789
     17 C12        14.3118    -6.8437    86.4588 C.ar       1          -0.1047
     18 C13        14.9915    -6.0293    87.3451 C.ar       1          -0.1106
     19 C14        15.6866    -6.5866    88.4021 C.ar       1          -0.1086
     20 C15        15.7015    -7.9582    88.5731 C.ar       1          -0.1067
     21 C16        15.0183    -8.7724    87.6892 C.ar       1          -0.1027
     22 C17        11.4568    -7.9760    86.2485 C.2        1           0.5242
     23 O4         10.8496    -7.5416    85.2927 O.2        1          -0.5127
     24 N3         11.5090    -7.2665    87.3931 N.am       1          -0.7218
     25 C18        10.8323    -5.9702    87.4828 C.3        1           0.1330
     26 C19        10.9369    -5.3885    88.9041 C.3        1          -0.1576
     27 C20         9.9209    -6.3006    89.6239 C.3        1          -0.0138
     28 N4          8.8042    -6.3820    88.6736 N.4        1          -0.3859
     29 H1          8.1082    -5.6893    88.9056 H          1           0.4281
     30 C21         8.2063    -7.7228    88.7243 C.3        1           0.0482
     31 C22         7.2843    -7.8169    89.9127 C.ar       1          -0.1938
     32 C23         7.7751    -8.2355    91.1357 C.ar       1          -0.0511
     33 C24         6.9320    -8.3227    92.2265 C.ar       1          -0.1425
     34 C25         5.5919    -7.9893    92.0943 C.ar       1           0.1621
     35 O5          4.7605    -8.0737    93.1660 O.3        1          -0.3055
     36 C26         5.3391    -7.8567    94.4545 C.3        1           0.0604
     37 C27         4.2877    -7.2582    95.3913 C.3        1          -0.1538
     38 C28         3.7967    -5.9257    94.8217 C.3        1          -0.0068
     39 N5          2.7873    -5.3510    95.7210 N.4        1          -0.3859
     40 H2          3.1957    -5.1977    96.6308 H          1           0.4295
     41 C29         2.3157    -4.0717    95.1742 C.3        1          -0.0484
     42 C30         1.6549    -6.2788    95.8426 C.3        1          -0.0553
     43 C31         5.1019    -7.5691    90.8662 C.ar       1          -0.2062
     44 C32         5.9501    -7.4791    89.7797 C.ar       1          -0.0476
     45 C33         9.3239    -6.1285    87.3378 C.3        1          -0.0204
     46 C34         8.8540   -12.3996    83.6454 C.ar       1          -0.1599
     47 C35         7.7213   -11.9347    83.0167 C.ar       1          -0.0293
     48 H3          2.7230    -8.9529    81.3589 H          1           0.0669
     49 H4          3.2573    -9.8340    82.8102 H          1           0.0669
     50 H5          4.2864    -8.5597    82.1133 H          1           0.0823
     51 H6          3.5741   -11.2061    80.7693 H          1           0.0697
     52 H7          4.6031    -9.9319    80.0723 H          1           0.0698
     53 H8          9.0764    -9.2818    81.3799 H          1           0.1414
     54 H9         11.0893   -10.1160    82.5142 H          1           0.1425
     55 H10        11.5323   -13.1151    83.9347 H          1           0.4098
     56 H11        10.6364    -9.8449    84.7701 H          1           0.4071
     57 H12        12.1712    -9.7786    87.1400 H          1           0.1247
     58 H13        14.0900   -10.0678    85.5964 H          1           0.0815
     59 H14        13.5683    -8.6343    84.6792 H          1           0.0821
     60 H15        13.7688    -6.4084    85.6329 H          1           0.1123
     61 H16        14.9798    -4.9576    87.2115 H          1           0.1189
     62 H17        16.2182    -5.9503    89.0942 H          1           0.1190
     63 H18        16.2448    -8.3936    89.3987 H          1           0.1162
     64 H19        15.0268    -9.8437    87.8250 H          1           0.1074
     65 H20        11.9945    -7.6139    88.1576 H          1           0.4125
     66 H21        11.2262    -5.2733    86.7429 H          1           0.1286
     67 H22        11.9405    -5.5117    89.3114 H          1           0.1052
     68 H23        10.6233    -4.3448    88.9309 H          1           0.1196
     69 H24        10.3482    -7.2877    89.8005 H          1           0.1340
     70 H25         9.5960    -5.8494    90.5614 H          1           0.1342
     71 H26         7.6405    -7.9032    87.8104 H          1           0.1388
     72 H27         8.9952    -8.4692    88.8166 H          1           0.1382
     73 H28         8.8185    -8.4950    91.2381 H          1           0.1415
     74 H29         7.3158    -8.6503    93.1814 H          1           0.1460
     75 H30         5.6890    -8.8058    94.8603 H          1           0.0774
     76 H31         6.1793    -7.1683    94.3643 H          1           0.0780
     77 H32         3.4474    -7.9465    95.4814 H          1           0.1026
     78 H33         4.7290    -7.0925    96.3741 H          1           0.1019
     79 H34         4.6370    -5.2373    94.7315 H          1           0.1350
     80 H35         3.3555    -6.0911    93.8388 H          1           0.1343
     81 H36         1.5668    -3.6453    95.8414 H          1           0.1239
     82 H37         3.1560    -3.3835    95.0838 H          1           0.1291
     83 H38         1.8745    -4.2374    94.1912 H          1           0.1251
     84 H39         0.9059    -5.8523    96.5100 H          1           0.1293
     85 H40         1.2137    -6.4443    94.8598 H          1           0.1244
     86 H41         2.0048    -7.2280    96.2484 H          1           0.1244
     87 H42         4.0589    -7.3093    90.7606 H          1           0.1382
     88 H43         5.5701    -7.1481    88.8244 H          1           0.1376
     89 H44         8.8886    -5.2145    86.9337 H          1           0.1467
     90 H45         9.0968    -6.9689    86.6818 H          1           0.1406
     91 H46         8.7990   -13.2713    84.2807 H          1           0.1359
     92 H47         6.7780   -12.4410    83.1582 H          1           0.1435
@<TRIPOS>BOND
     1    1    2 1
     2    1   48 1
     3    1   49 1
     4    1   50 1
     5    2    3 1
     6    2   51 1
     7    2   52 1
     8    3    4 1
     9    4    5 2
    10    4    6 1
    11    6   47 ar
    12    6    7 ar
    13    7    8 ar
    14    7   53 1
    15    8    9 ar
    16    8   54 1
    17    9   10 1
    18    9   46 ar
    19   10   11 am
    20   10   55 1
    21   11   12 2
    22   11   13 am
    23   13   14 1
    24   13   56 1
    25   14   15 1
    26   14   22 1
    27   14   57 1
    28   15   16 1
    29   15   58 1
    30   15   59 1
    31   16   21 ar
    32   16   17 ar
    33   17   18 ar
    34   17   60 1
    35   18   19 ar
    36   18   61 1
    37   19   20 ar
    38   19   62 1
    39   20   21 ar
    40   20   63 1
    41   21   64 1
    42   22   23 2
    43   22   24 am
    44   24   25 1
    45   24   65 1
    46   25   45 1
    47   25   26 1
    48   25   66 1
    49   26   27 1
    50   26   67 1
    51   26   68 1
    52   27   28 1
    53   27   69 1
    54   27   70 1
    55   28   29 1
    56   28   30 1
    57   28   45 1
    58   30   31 1
    59   30   71 1
    60   30   72 1
    61   31   44 ar
    62   31   32 ar
    63   32   33 ar
    64   32   73 1
    65   33   34 ar
    66   33   74 1
    67   34   35 1
    68   34   43 ar
    69   35   36 1
    70   36   37 1
    71   36   75 1
    72   36   76 1
    73   37   38 1
    74   37   77 1
    75   37   78 1
    76   38   39 1
    77   38   79 1
    78   38   80 1
    79   39   40 1
    80   39   41 1
    81   39   42 1
    82   41   81 1
    83   41   82 1
    84   41   83 1
    85   42   84 1
    86   42   85 1
    87   42   86 1
    88   43   44 ar
    89   43   87 1
    90   44   88 1
    91   45   89 1
    92   45   90 1
    93   46   47 ar
    94   46   91 1
    95   47   92 1
##########                 Name:              T539855
##########          Protonation:                   99
##########               SMILES:   c1ccc2c(c1)c(c[nH]2)C3=CC[NH+](CC3)CCCCC[C@]45CCCc6c4c(ccc6)NC5=O
##########            Long Name:   5-[4-(1H-indol-3-yl)-1,2,3,6-tetrahydropyridin-1-ium-1-yl]pentylBLAHone
##########          FlexRecCode: 1
##########               Number:                  160
##########   Ligand Source File: /raidb/db2/rgc/tcams/tcams-0001984.db2.gz
##########           GlobalRank: 348
##########                 Rank:                    1
##########               Setnum:                  205
##########             Matchnum:                 5132
##########                Cloud:                    1
##########        Electrostatic:           -31.128439
##########        Van der Waals:           -33.000858
##########  Ligand Polar Desolv:             4.857443
########## Ligand Apolar Desolv:            -5.426830
##########      Internal Energy:             0.000000
##########      Receptor Energy: 0.0
########## Receptor Desolvation:             0.000000
########## Receptor Hydrophobic:             0.000000
##########         Total Energy: -64.7
##########        Ligand Charge:             1.000000
##########            Arbitrary:    +999.9990
##########     heavy atom count:   33
##########           pose count:    1
##########        Ligand Energy:             0.000000
# num electro vdwattr vdwrepu polsolv apolsol rdesolv rhydroe totalscore fullpol fullapo
#   1    1.51   -0.21    0.01   -0.15    0.04    0.00    0.00       1.20   -1.52    0.39
#   2   -2.01   -0.50    0.06    0.42   -0.09    0.00    0.00      -2.12    2.73   -0.58
#   3    2.06   -0.74    0.10   -0.78    0.38    0.00    0.00       1.02   -3.77    1.83
#   4   -0.60   -1.42    0.31    0.20   -0.27    0.00    0.00      -1.77    0.59   -0.79
#   5    0.51   -2.04    0.48   -0.49   -0.22    0.00    0.00      -1.78   -1.06   -0.47
#   6    0.39   -2.79    1.03   -0.43   -0.25    0.00    0.00      -2.04   -0.79   -0.46
#   7    1.88   -3.19    2.00   -0.68   -0.27    0.00    0.00      -0.25   -1.19   -0.47
#   8    0.71   -2.48    0.99   -0.19   -0.18    0.00    0.00      -1.15   -0.41   -0.40
#   9    1.01   -1.49    0.32   -0.45   -0.11    0.00    0.00      -0.72   -1.31   -0.32
#  10    0.49   -0.45    0.03   -0.07   -0.01    0.00    0.00      -0.01   -0.31   -0.04
#  11    1.70   -0.68    0.10   -0.26   -0.05    0.00    0.00       0.82   -1.04   -0.19
#  12    0.74   -0.66    0.11   -0.50   -0.05    0.00    0.00      -0.37   -1.97   -0.21
#  13    2.55   -1.04    0.25   -0.73   -0.07    0.00    0.00       0.96   -2.40   -0.22
#  14    3.70   -0.57    0.10   -0.91   -0.05    0.00    0.00       2.27   -4.04   -0.21
#  15    0.27   -0.71    0.17    0.13   -0.08    0.00    0.00      -0.23    0.52   -0.35
#  16    8.30   -0.55    0.05   -2.52    0.06    0.00    0.00       5.34  -11.62    0.28
#  17   -4.55   -0.01    0.00    1.47    0.06    0.00    0.00      -3.03   14.20    0.54
#  18    0.07   -0.52    0.03    0.17   -0.11    0.00    0.00      -0.34    0.66   -0.40
#  19    1.49   -0.62    0.06   -0.81   -0.07    0.00    0.00       0.04   -2.60   -0.24
#  20    0.05   -1.00    0.10   -0.36   -0.12    0.00    0.00      -1.33   -1.17   -0.40
#  21    3.08   -1.28    0.38   -0.93   -0.12    0.00    0.00       1.13   -3.44   -0.45
#  22   -0.84   -0.61    0.09    0.36   -0.09    0.00    0.00      -1.08    1.46   -0.37
#  23    1.76   -1.21    0.13   -0.79   -0.13    0.00    0.00      -0.25   -2.31   -0.38
#  24   -1.18   -1.47    0.17    0.37   -0.45    0.00    0.00      -2.55    0.83   -0.99
#  25    6.99   -1.77    0.44   -2.82    0.53    0.00    0.00       3.37   -6.13    1.16
#  26   -0.72   -1.50    0.26    0.08   -0.35    0.00    0.00      -2.24    0.17   -0.78
#  27    0.90   -1.71    0.20   -0.56   -0.27    0.00    0.00      -1.44   -0.99   -0.48
#  28    0.94   -2.13    0.49   -0.45   -0.25    0.00    0.00      -1.40   -0.85   -0.47
#  29    1.15   -2.35    1.15   -0.60   -0.21    0.00    0.00      -0.86   -1.34   -0.47
#  30    0.31   -1.60    0.34   -0.26   -0.17    0.00    0.00      -1.39   -0.73   -0.47
#  31    0.53   -1.27    0.13   -0.43   -0.16    0.00    0.00      -1.21   -1.21   -0.44
#  32    1.42   -0.47    0.04   -0.21   -0.05    0.00    0.00       0.73   -0.83   -0.21
#  33    3.16   -0.87    0.11   -0.48   -0.10    0.00    0.00       1.82   -1.22   -0.25
#  34    2.64   -1.57    0.39   -0.40   -0.12    0.00    0.00       0.94   -0.86   -0.25
#  35   -1.04   -0.01    0.00    0.24    0.05    0.00    0.00      -0.75    2.83    0.59
#  36   -0.38   -0.39    0.07    0.47   -0.12    0.00    0.00      -0.34    1.14   -0.28
#  37   -0.67   -1.12    2.98    0.80   -0.15    0.00    0.00       1.84    1.49   -0.28
#  38   -1.85   -0.78    0.94    0.93   -0.15    0.00    0.00      -0.92    1.69   -0.28
#  39   -1.78   -0.12    0.01    0.22   -0.03    0.00    0.00      -1.70    1.81   -0.21
#  40   -2.42   -0.54    0.27    0.17   -0.08    0.00    0.00      -2.61    0.55   -0.28
#  41   -0.28   -0.43    0.22    0.04   -0.05    0.00    0.00      -0.49    0.17   -0.21
#  42   -0.35   -0.07    0.00    0.08   -0.01    0.00    0.00      -0.34    1.24   -0.22
#  43   -3.39   -1.17    1.98    0.94   -0.11    0.00    0.00      -1.75    2.37   -0.28
#  44   -0.79   -0.23    0.04    0.31   -0.06    0.00    0.00      -0.74    1.35   -0.28
#  45   -1.21   -0.06    0.00    0.10   -0.02    0.00    0.00      -1.18    1.83   -0.28
#  46   -2.69   -0.23    0.06    0.48   -0.04    0.00    0.00      -2.42    2.86   -0.22
#  47   -6.12   -0.71    0.85    1.52   -0.07    0.00    0.00      -4.54    5.62   -0.27
#  48   -2.73   -0.11    0.00    0.66   -0.03    0.00    0.00      -2.21    5.18   -0.27
#  49   -4.49   -0.25    0.05    1.04   -0.06    0.00    0.00      -3.71    5.07   -0.28
#  50   -3.13   -0.13    0.00    0.60   -0.03    0.00    0.00      -2.69    5.86   -0.27
#  51   -1.90   -0.20    0.01    0.53   -0.06    0.00    0.00      -1.62    2.33   -0.28
#  52   -0.35   -0.38    0.27    0.51   -0.06    0.00    0.00      -0.02    2.30   -0.28
#  53   -2.04   -0.55    0.60    0.34   -0.06    0.00    0.00      -1.71    1.63   -0.28
#  54   -2.53   -0.10    0.00    0.49   -0.02    0.00    0.00      -2.16    4.77   -0.23
#  55   -5.21   -0.49    0.41    1.50   -0.07    0.00    0.00      -3.87    5.73   -0.27
#  56   -2.81   -0.29    0.02    1.35   -0.09    0.00    0.00      -1.82    4.20   -0.28
#  57   -6.43   -0.03    0.00    1.97    0.23    0.00    0.00      -4.27    5.05    0.59
#  58   -0.79   -0.43    0.06    0.37   -0.15    0.00    0.00      -0.93    0.72   -0.28
#  59   -1.88   -0.64    0.26    0.43   -0.15    0.00    0.00      -1.98    0.78   -0.28
#  60   -1.75   -0.75    0.62    0.45   -0.11    0.00    0.00      -1.54    1.19   -0.28
#  61   -0.19   -0.33    0.10    0.49   -0.06    0.00    0.00       0.00    2.23   -0.28
#  62   -1.07   -0.07    0.00    0.08   -0.01    0.00    0.00      -1.07    1.34   -0.22
#  63   -0.79   -0.25    0.11    0.00   -0.04    0.00    0.00      -0.98   -0.01   -0.27
#  64   -1.91   -0.23    0.02    0.41   -0.07    0.00    0.00      -1.79    1.55   -0.28
#  65   -2.02   -0.46    0.17    0.08   -0.09    0.00    0.00      -2.32    0.25   -0.28
#  66   -3.23   -0.80    0.52    0.56   -0.13    0.00    0.00      -3.09    1.16   -0.28
#  67   -3.31   -0.70    0.30    0.73   -0.10    0.00    0.00      -3.07    1.68   -0.23

@<TRIPOS>MOLECULE
          T539855        99
   67    72     0     0     0



@<TRIPOS>ATOM
      1 O1          6.1250    -8.5569    86.7428 O.2        1          -0.4942
      2 C1          6.0983    -7.3971    86.3886 C.2        1           0.5420
      3 N1          5.3242    -6.8758    85.4049 N.am       1          -0.6620
      4 C2          5.6557    -5.5555    85.1113 C.ar       1           0.1518
      5 C3          5.2139    -4.5942    84.2025 C.ar       1          -0.1326
      6 C4          5.8469    -3.3651    84.1372 C.ar       1          -0.0796
      7 C5          6.9319    -3.0455    84.9503 C.ar       1          -0.1251
      8 C6          7.3484    -3.9706    85.8637 C.ar       1          -0.0318
      9 C7          6.6666    -5.1674    85.9491 C.ar       1          -0.1614
     10 C8          6.9152    -6.2686    86.9656 C.3        1          -0.0481
     11 C9          6.4189    -5.8761    88.3586 C.3        1          -0.0867
     12 C10         4.8895    -5.9076    88.3826 C.3        1          -0.1291
     13 C11         4.3930    -5.5151    89.7758 C.3        1          -0.1146
     14 C12         4.9399    -6.5021    90.8088 C.3        1          -0.1498
     15 C13         4.4435    -6.1096    92.2019 C.3        1          -0.0091
     16 N2          4.9685    -7.0573    93.1938 N.4        1          -0.3872
     17 H1          4.4114    -7.8985    93.1851 H          1           0.4255
     18 C14         4.9184    -6.4476    94.5321 C.3        1          -0.0031
     19 C15         5.2194    -7.5288    95.5732 C.3        1          -0.1137
     20 C16         6.4679    -8.2707    95.1822 C.2        1          -0.0042
     21 C17         6.9751    -8.2057    93.9683 C.2        1          -0.1929
     22 C18         6.3611    -7.3872    92.8689 C.3        1           0.0354
     23 C19         7.1491    -9.1011    96.1947 C.2        1          -0.1831
     24 C20         7.6625    -8.6782    97.3785 C.2        1           0.0905
     25 N3          8.2140    -9.7337    98.0445 N.pl3      1          -0.5852
     26 C21         8.0744   -10.8883    97.3052 C.ar       1           0.0924
     27 C22         8.4520   -12.2105    97.5203 C.ar       1          -0.1216
     28 C23         8.1659   -13.1669    96.5711 C.ar       1          -0.0944
     29 C24         7.5038   -12.8254    95.4001 C.ar       1          -0.1326
     30 C25         7.1249   -11.5323    95.1698 C.ar       1          -0.0814
     31 C26         7.3988   -10.5506    96.1205 C.ar       1          -0.0895
     32 C27         8.4172    -6.5049    86.9416 C.3        1          -0.0897
     33 C28         9.2425    -5.2369    86.8265 C.3        1          -0.1147
     34 C29         8.5070    -3.9094    86.8220 C.3        1          -0.0751
     35 H2          4.6184    -7.3674    84.9563 H          1           0.4141
     36 H3          4.3793    -4.8082    83.5512 H          1           0.1290
     37 H4          5.4880    -2.6297    83.4324 H          1           0.1329
     38 H5          7.4304    -2.0917    84.8604 H          1           0.1344
     39 H6          6.8085    -6.5793    89.0947 H          1           0.0844
     40 H7          6.7654    -4.8706    88.5977 H          1           0.0693
     41 H8          4.4999    -5.2043    87.6466 H          1           0.0779
     42 H9          4.5429    -6.9129    88.1435 H          1           0.0735
     43 H10         4.7395    -4.5096    90.0149 H          1           0.0747
     44 H11         3.3034    -5.5376    89.7928 H          1           0.0728
     45 H12         4.5935    -7.5075    90.5697 H          1           0.0878
     46 H13         6.0296    -6.4796    90.7918 H          1           0.0883
     47 H14         4.7899    -5.1042    92.4411 H          1           0.1304
     48 H15         3.3539    -6.1321    92.2190 H          1           0.1312
     49 H16         5.6638    -5.6554    94.6013 H          1           0.1320
     50 H17         3.9251    -6.0353    94.7094 H          1           0.1352
     51 H18         5.3640    -7.0636    96.5483 H          1           0.1226
     52 H19         4.3834    -8.2263    95.6244 H          1           0.1056
     53 H20         7.8722    -8.7672    93.7532 H          1           0.1493
     54 H21         6.3898    -7.9526    91.9375 H          1           0.1386
     55 H22         6.9305    -6.4660    92.7459 H          1           0.1367
     56 H23         7.6381    -7.6603    97.7385 H          1           0.1743
     57 H24         8.6428    -9.6791    98.9129 H          1           0.4232
     58 H25         8.9679   -12.4857    98.4283 H          1           0.1257
     59 H26         8.4600   -14.1924    96.7395 H          1           0.1315
     60 H27         7.2866   -13.5867    94.6654 H          1           0.1269
     61 H28         6.6102   -11.2731    94.2563 H          1           0.1169
     62 H29         8.7018    -7.0219    87.8580 H          1           0.0735
     63 H30         8.6533    -7.1503    86.0955 H          1           0.0669
     64 H31         9.9543    -5.2263    87.6519 H          1           0.0701
     65 H32         9.8139    -5.2940    85.9000 H          1           0.0644
     66 H33         9.1871    -3.1131    86.5195 H          1           0.0823
     67 H34         8.1367    -3.7083    87.8272 H          1           0.0785
@<TRIPOS>BOND
     1    1    2 2
     2    2   10 1
     3    2    3 am
     4    3    4 1
     5    3   35 1
     6    4    9 ar
     7    4    5 ar
     8    5    6 ar
     9    5   36 1
    10    6    7 ar
    11    6   37 1
    12    7    8 ar
    13    7   38 1
    14    8   34 1
    15    8    9 ar
    16    9   10 1
    17   10   11 1
    18   10   32 1
    19   11   12 1
    20   11   39 1
    21   11   40 1
    22   12   13 1
    23   12   41 1
    24   12   42 1
    25   13   14 1
    26   13   43 1
    27   13   44 1
    28   14   15 1
    29   14   45 1
    30   14   46 1
    31   15   16 1
    32   15   47 1
    33   15   48 1
    34   16   17 1
    35   16   22 1
    36   16   18 1
    37   18   19 1
    38   18   49 1
    39   18   50 1
    40   19   20 1
    41   19   51 1
    42   19   52 1
    43   20   21 2
    44   20   23 1
    45   21   22 1
    46   21   53 1
    47   22   54 1
    48   22   55 1
    49   23   31 1
    50   23   24 2
    51   24   25 1
    52   24   56 1
    53   25   26 1
    54   25   57 1
    55   26   31 ar
    56   26   27 ar
    57   27   28 ar
    58   27   58 1
    59   28   29 ar
    60   28   59 1
    61   29   30 ar
    62   29   60 1
    63   30   31 ar
    64   30   61 1
    65   32   33 1
    66   32   62 1
    67   32   63 1
    68   33   34 1
    69   33   64 1
    70   33   65 1
    71   34   66 1
    72   34   67 1
##########                 Name:              T541042
##########          Protonation:                   38
##########               SMILES:   Cc1nc(cs1)c2cccc(c2)/N=c/3\[nH]c(cc[nH+]3)NC[C@H](c4ccccc4C(F)(F)F)O
##########            Long Name:   yl]imino-1H-pyrimidin-3-ium-6-yl]amino]-1-[2-(trifluoromethyl)phenyl]ethanol
##########          FlexRecCode: 1
##########               Number:                  179
##########   Ligand Source File: /raidb/db2/rgc/tcams/tcams-0002114.db2.gz
##########           GlobalRank: 348
##########                 Rank:                    1
##########               Setnum:                  115
##########             Matchnum:                 1245
##########                Cloud:                    1
##########        Electrostatic:           -41.723026
##########        Van der Waals:           -28.718164
##########  Ligand Polar Desolv:             8.610010
########## Ligand Apolar Desolv:            -2.866062
##########      Internal Energy:             0.000000
##########      Receptor Energy: 0.0
########## Receptor Desolvation:             0.000000
########## Receptor Hydrophobic:             0.000000
##########         Total Energy: -64.7
##########        Ligand Charge:             1.000000
##########            Arbitrary:    +999.9990
##########     heavy atom count:   33
##########           pose count:    1
##########        Ligand Energy:             0.000000
# num electro vdwattr vdwrepu polsolv apolsol rdesolv rhydroe totalscore fullpol fullapo
#   1    0.39   -0.93    0.11   -0.20   -0.08    0.00    0.00      -0.71   -0.49   -0.21
#   2   -0.43   -1.28    0.13    0.02   -0.24    0.00    0.00      -1.80    0.06   -0.67
#   3    3.50   -1.27    0.14   -0.49    0.62    0.00    0.00       2.50   -1.43    1.80
#   4   -1.14   -1.19    0.09    0.06   -0.28    0.00    0.00      -2.47    0.15   -0.74
#   5    3.38   -1.60    0.19   -0.71   -0.12    0.00    0.00       1.15   -1.45   -0.24
#   6   -1.64   -2.43    0.42    0.27   -0.36    0.00    0.00      -3.74    0.61   -0.81
#   7   -0.21   -1.08    0.08   -0.12   -0.16    0.00    0.00      -1.48   -0.32   -0.41
#   8    2.72   -1.58    0.31   -0.62   -0.19    0.00    0.00       0.64   -1.43   -0.44
#   9    3.15   -2.08    0.52   -0.53   -0.23    0.00    0.00       0.83   -1.09   -0.47
#  10    4.87   -1.62    0.23   -1.00   -0.16    0.00    0.00       2.34   -2.34   -0.37
#  11   -1.60   -1.12    0.07    0.51   -0.22    0.00    0.00      -2.35    1.33   -0.58
#  12    0.93   -1.26    0.13   -0.39   -0.17    0.00    0.00      -0.75   -1.04   -0.45
#  13   10.67   -1.21    0.08   -3.75    0.90    0.00    0.00       6.69   -8.52    2.05
#  14  -12.60   -0.94    0.06    4.21   -1.63    0.00    0.00     -10.90   11.93   -4.62
#  15   11.87   -0.61    0.01   -3.24    0.23    0.00    0.00       8.27  -13.68    0.96
#  16   -7.90   -0.63    0.03    2.86   -0.45    0.00    0.00      -6.09   12.93   -2.04
#  17    6.87   -0.87    0.19   -3.25    0.36    0.00    0.00       3.29  -15.16    1.66
#  18   -0.47   -0.44    0.04    0.19   -0.07    0.00    0.00      -0.76    0.86   -0.33
#  19   -1.49   -0.57    0.07    0.64   -0.03    0.00    0.00      -1.39    2.52   -0.11
#  20    6.86   -3.23    2.58   -3.93    0.64    0.00    0.00       2.92  -10.24    1.67
#  21    1.51   -0.73    0.07   -0.26   -0.08    0.00    0.00       0.51   -1.17   -0.35
#  22    2.46   -0.71    0.10   -0.32   -0.09    0.00    0.00       1.44   -1.65   -0.44
#  23    1.60   -0.62    0.06   -0.25   -0.09    0.00    0.00       0.69   -1.25   -0.47
#  24    1.82   -0.46    0.02   -0.27   -0.08    0.00    0.00       1.03   -1.61   -0.47
#  25    0.92   -0.50    0.02   -0.21   -0.08    0.00    0.00       0.15   -1.14   -0.44
#  26    1.74   -0.71    0.07   -0.48   -0.08    0.00    0.00       0.54   -2.26   -0.37
#  27   -1.72   -0.82    0.24    1.22   -0.02    0.00    0.00      -1.10    4.82   -0.06
#  28    0.42   -1.07    0.61   -0.42   -0.13    0.00    0.00      -0.59   -1.40   -0.44
#  29    0.83   -2.07    2.15   -0.69   -0.13    0.00    0.00       0.08   -1.90   -0.37
#  30    0.47   -0.27    0.01   -0.33   -0.08    0.00    0.00      -0.20   -1.68   -0.43
#  31    5.30   -0.84    0.09   -2.39   -0.13    0.00    0.00       2.03   -8.68   -0.46
#  32   -8.24   -1.83    0.77    3.25   -0.34    0.00    0.00      -6.40    9.32   -0.97
#  33   17.16   -2.20    1.65   -5.40    0.42    0.00    0.00      11.62  -13.13    1.01
#  34  -22.16   -0.17    0.10    4.69    0.23    0.00    0.00     -17.31   12.03    0.59
#  35   -0.17   -0.39    0.10    0.31   -0.08    0.00    0.00      -0.24    1.11   -0.28
#  36   -0.85   -0.19    0.01    0.14   -0.06    0.00    0.00      -0.95    0.70   -0.28
#  37   -0.46   -0.38    0.07    0.30   -0.11    0.00    0.00      -0.58    0.79   -0.28
#  38   -3.50   -0.40    0.06    1.32   -0.11    0.00    0.00      -2.63    2.85   -0.24
#  39   -3.91   -0.40    0.07    0.88   -0.10    0.00    0.00      -3.47    2.00   -0.23
#  40   -5.96   -0.61    0.20    1.70   -0.14    0.00    0.00      -4.81    3.38   -0.28
#  41   -3.80   -0.41    0.08    1.07   -0.10    0.00    0.00      -3.15    3.14   -0.28
#  42   -0.63   -0.47    0.18    0.00   -0.09    0.00    0.00      -1.01    0.01   -0.26
#  43   -9.25   -0.01    0.00    0.84    0.03    0.00    0.00      -8.38    8.71    0.32
#  44   -2.20   -0.02    0.00    1.86    0.09    0.00    0.00      -0.27   11.30    0.56
#  45   -2.82   -0.21    0.03    0.64   -0.05    0.00    0.00      -2.42    3.43   -0.28
#  46   -1.35   -0.06    0.00    0.09   -0.01    0.00    0.00      -1.33    1.61   -0.17
#  47   -0.52   -0.08    0.00    0.16   -0.02    0.00    0.00      -0.46    1.59   -0.20
#  48  -15.17   -0.10    0.01    4.30    0.46    0.00    0.00     -10.50    9.22    0.98
#  49   -3.23   -0.12    0.01    0.43   -0.02    0.00    0.00      -2.92    4.08   -0.22
#  50   -2.85   -0.14    0.01    0.45   -0.04    0.00    0.00      -2.58    2.82   -0.28
#  51   -2.09   -0.06    0.00    0.11   -0.02    0.00    0.00      -2.05    1.89   -0.28
#  52   -1.70   -0.10    0.00    0.11   -0.02    0.00    0.00      -1.72    1.09   -0.25
#  53   -2.52   -0.17    0.02    1.14   -0.04    0.00    0.00      -1.58    7.50   -0.28
#  54   -8.58   -1.17    3.43    4.07   -0.11    0.00    0.00      -2.34   10.63   -0.28

@<TRIPOS>MOLECULE
          T541042        38
   54    57     0     0     0



@<TRIPOS>ATOM
      1 C1          7.5257   -11.7115    95.7920 C.3        1          -0.0697
      2 C2          7.4563   -10.3176    96.3603 C.2        1           0.0651
      3 N1          6.6544    -9.3431    96.0189 N.2        1          -0.5168
      4 C3          6.7123    -8.1608    96.6153 C.2        1           0.0916
      5 C4          7.6520    -8.0195    97.6011 C.2        1          -0.2227
      6 S1          8.3875    -9.6463    97.5907 S.3        1           0.1392
      7 C5          5.8070    -7.0489    96.2344 C.ar       1           0.0122
      8 C6          6.3361    -5.8501    95.7555 C.ar       1          -0.1020
      9 C7          5.4964    -4.8125    95.4000 C.ar       1          -0.0933
     10 C8          4.1284    -4.9531    95.5155 C.ar       1          -0.1696
     11 C9          3.5848    -6.1491    95.9945 C.ar       1           0.0784
     12 C10         4.4298    -7.2021    96.3490 C.ar       1          -0.0707
     13 N2          2.2307    -6.2886    96.1095 N.2        1          -0.5001
     14 C11         1.4594    -6.1755    95.0378 C.2        1           0.5622
     15 N3          2.0358    -6.0489    93.7963 N.pl3      1          -0.6347
     16 C12         1.2393    -5.9324    92.6908 C.2        1           0.5537
     17 N4          1.7926    -5.8055    91.4425 N.pl3      1          -0.6477
     18 C13         3.1777    -6.2224    91.2096 C.3        1           0.0287
     19 C14         3.5446    -5.9765    89.7447 C.3        1           0.1309
     20 O1          3.4093    -4.5855    89.4467 O.3        1          -0.5343
     21 C15         4.9693    -6.4053    89.5050 C.ar       1          -0.0863
     22 C16         5.7184    -6.9264    90.5435 C.ar       1          -0.1066
     23 C17         7.0251    -7.3197    90.3236 C.ar       1          -0.0758
     24 C18         7.5828    -7.1923    89.0650 C.ar       1          -0.1039
     25 C19         6.8337    -6.6722    88.0266 C.ar       1          -0.0637
     26 C20         5.5253    -6.2828    88.2455 C.ar       1          -0.1739
     27 C21         4.7067    -5.7204    87.1120 C.3        1           0.5055
     28 F1          3.4272    -5.3973    87.5762 F          1          -0.1644
     29 F2          5.3271    -4.5692    86.6152 F          1          -0.1825
     30 F3          4.6060    -6.6729    86.0922 F          1          -0.1692
     31 C22        -0.1361    -5.9449    92.8537 C.2        1          -0.3316
     32 C23        -0.6671    -6.0752    94.1311 C.2        1           0.2978
     33 N5          0.1301    -6.1912    95.1758 N.pl3      1          -0.5459
     34 H1         -0.2555    -6.2857    96.0608 H          1           0.4627
     35 H2          6.7808   -11.8198    95.0037 H          1           0.0896
     36 H3          8.5193   -11.8868    95.3795 H          1           0.0949
     37 H4          7.3271   -12.4362    96.5815 H          1           0.0937
     38 H5          7.8820    -7.1626    98.2169 H          1           0.1994
     39 H6          7.4058    -5.7329    95.6627 H          1           0.1358
     40 H7          5.9122    -3.8869    95.0302 H          1           0.1375
     41 H8          3.4769    -4.1384    95.2359 H          1           0.1230
     42 H9          4.0159    -8.1302    96.7152 H          1           0.1450
     43 H10         3.0014    -6.0422    93.7048 H          1           0.4451
     44 H11         1.2671    -5.4400    90.7139 H          1           0.4469
     45 H12         3.8434    -5.6466    91.8524 H          1           0.1000
     46 H13         3.2808    -7.2834    91.4369 H          1           0.1183
     47 H14         2.8789    -6.5523    89.1018 H          1           0.1333
     48 H15         3.9739    -4.0118    89.9825 H          1           0.3835
     49 H16         5.2827    -7.0260    91.5267 H          1           0.1378
     50 H17         7.6105    -7.7261    91.1352 H          1           0.1428
     51 H18         8.6040    -7.4990    88.8933 H          1           0.1449
     52 H19         7.2695    -6.5723    87.0434 H          1           0.1469
     53 H20        -0.7884    -5.8542    91.9977 H          1           0.1970
     54 H21        -1.7381    -6.0862    94.2689 H          1           0.2218
@<TRIPOS>BOND
     1    1    2 1
     2    1   35 1
     3    1   36 1
     4    1   37 1
     5    2    6 1
     6    2    3 2
     7    3    4 1
     8    4    5 2
     9    4    7 1
    10    5    6 1
    11    5   38 1
    12    7   12 ar
    13    7    8 ar
    14    8    9 ar
    15    8   39 1
    16    9   10 ar
    17    9   40 1
    18   10   11 ar
    19   10   41 1
    20   11   12 ar
    21   11   13 1
    22   12   42 1
    23   13   14 2
    24   14   33 1
    25   14   15 1
    26   15   16 1
    27   15   43 1
    28   16   17 1
    29   16   31 2
    30   17   18 1
    31   17   44 1
    32   18   19 1
    33   18   45 1
    34   18   46 1
    35   19   20 1
    36   19   21 1
    37   19   47 1
    38   20   48 1
    39   21   26 ar
    40   21   22 ar
    41   22   23 ar
    42   22   49 1
    43   23   24 ar
    44   23   50 1
    45   24   25 ar
    46   24   51 1
    47   25   26 ar
    48   25   52 1
    49   26   27 1
    50   27   28 1
    51   27   29 1
    52   27   30 1
    53   31   32 1
    54   31   53 1
    55   32   33 2
    56   32   54 1
    57   33   34 1
##########                 Name:              T536174
##########          Protonation:                   11
##########               SMILES:   1)Cl)/[NH+]=C(\NCCCCCC/[NH+]=C(\NC(=[NH2+])Nc2ccc(cc2)Cl)/N3CCOCC3)/N4CCOCC4
##########            Long Name:   -(4-chlorophenyl)carbamimidoyl]iminio-morpholino-methyl]amino]hexyl]ammonium
##########          FlexRecCode: 1
##########               Number:                  222
##########   Ligand Source File: /raidb/db2/rgc/tcams/tcams-0001447.db2.gz
##########           GlobalRank: 349
##########                 Rank:                    1
##########               Setnum:                   53
##########             Matchnum:                 3424
##########                Cloud:                    1
##########        Electrostatic:           -36.033081
##########        Van der Waals:           -27.775314
##########  Ligand Polar Desolv:             2.902862
########## Ligand Apolar Desolv:            -3.781549
##########      Internal Energy:             0.000000
##########      Receptor Energy: 0.0
########## Receptor Desolvation:             0.000000
########## Receptor Hydrophobic:             0.000000
##########         Total Energy: -64.69
##########        Ligand Charge:             3.000000
##########            Arbitrary:    +999.9990
##########     heavy atom count:   44
##########           pose count:    1
##########        Ligand Energy:             0.000000
# num electro vdwattr vdwrepu polsolv apolsol rdesolv rhydroe totalscore fullpol fullapo
#   1    0.10   -3.57    0.97   -2.46   -0.55    0.00    0.00      -5.51   -4.40   -0.99
#   2    0.13   -1.39    0.19   -1.23   -0.13    0.00    0.00      -2.43   -2.92   -0.30
#   3    0.74   -1.67    0.35   -2.03   -0.21    0.00    0.00      -2.82   -4.53   -0.46
#   4    0.89   -1.26    0.11   -1.61   -0.18    0.00    0.00      -2.05   -4.19   -0.46
#   5   -0.69   -1.11    0.13    2.18   -0.21    0.00    0.00       0.31    6.92   -0.65
#   6    7.72   -0.84    0.07   -8.40    0.29    0.00    0.00      -1.17  -30.56    1.05
#   7  -12.12   -0.73    0.06   10.22   -1.08    0.00    0.00      -3.64   42.10   -4.45
#   8   12.10   -1.44    0.60   -9.58    0.17    0.00    0.00       1.85  -38.42    0.69
#   9   -6.74   -0.07    0.01    5.93    0.05    0.00    0.00      -0.82   24.48    0.22
#  10   -7.46   -0.01    0.00    4.03    0.09    0.00    0.00      -3.35   25.92    0.59
#  11   10.45   -0.50    0.02   -6.70    0.18    0.00    0.00       3.46  -34.93    0.96
#  12   -9.90   -0.52    0.03    7.78   -0.70    0.00    0.00      -3.30   42.77   -3.82
#  13    2.74   -0.61    0.07   -4.80    0.27    0.00    0.00      -2.33  -28.56    1.63
#  14   -2.51   -0.01    0.00    2.49    0.06    0.00    0.00       0.03   25.52    0.57
#  15   -0.01   -0.62    0.26    0.24   -0.07    0.00    0.00      -0.20    1.41   -0.38
#  16    0.26   -0.15    0.01   -0.64   -0.02    0.00    0.00      -0.54   -6.96   -0.22
#  17    0.06   -0.11    0.01   -0.43   -0.02    0.00    0.00      -0.49   -5.72   -0.22
#  18    0.11   -0.05    0.00   -0.21   -0.01    0.00    0.00      -0.16   -5.31   -0.22
#  19    0.10   -0.03    0.00   -0.17   -0.01    0.00    0.00      -0.10   -5.38   -0.22
#  20   -0.08   -0.05    0.00    0.10   -0.02    0.00    0.00      -0.04    2.76   -0.42
#  21    0.83   -0.14    0.00   -1.50    0.10    0.00    0.00      -0.71  -22.33    1.54
#  22   -1.29   -0.32    0.01    3.39   -0.45    0.00    0.00       1.35   28.87   -3.80
#  23    1.41   -0.72    0.12   -3.92    0.15    0.00    0.00      -2.95  -21.71    0.85
#  24   -1.12   -0.01    0.00    2.14    0.05    0.00    0.00       1.07   16.04    0.39
#  25   -1.88   -1.29    0.97    3.90   -0.83    0.00    0.00       0.87   21.77   -4.65
#  26    3.00   -1.14    0.34   -6.28    0.25    0.00    0.00      -3.84  -27.16    1.07
#  27    1.76   -1.11    0.84   -3.26    0.16    0.00    0.00      -1.62  -22.17    1.06
#  28   -0.35   -0.37    0.06    0.54   -0.07    0.00    0.00      -0.19    4.72   -0.62
#  29    0.37   -0.27    0.02   -0.38   -0.04    0.00    0.00      -0.28   -3.72   -0.36
#  30    0.27   -0.16    0.00   -0.14   -0.03    0.00    0.00      -0.05   -2.13   -0.46
#  31    0.27   -0.22    0.00   -0.17   -0.03    0.00    0.00      -0.13   -1.92   -0.30
#  32    0.30   -1.53    0.67   -0.40   -0.17    0.00    0.00      -1.12   -2.37   -0.99
#  33    0.80   -0.23    0.00   -0.23   -0.04    0.00    0.00       0.30   -2.55   -0.46
#  34    0.78   -0.21    0.00   -0.28   -0.04    0.00    0.00       0.25   -3.19   -0.46
#  35    0.85   -0.36    0.01   -3.34    0.19    0.00    0.00      -2.65  -23.73    1.34
#  36   -0.12   -0.48    0.03    0.97   -0.10    0.00    0.00       0.30    3.85   -0.39
#  37   -0.05   -1.30    0.45    0.19   -0.05    0.00    0.00      -0.75    0.53   -0.14
#  38    0.20   -1.08    0.15   -3.50    0.42    0.00    0.00      -3.81  -11.45    1.38
#  39   -0.02   -0.76    0.19    0.18   -0.04    0.00    0.00      -0.45    0.70   -0.14
#  40   -0.07   -0.22    0.01    0.50   -0.06    0.00    0.00       0.15    4.01   -0.51
#  41   14.51   -0.61    0.02   -7.69    0.17    0.00    0.00       6.39  -34.92    0.75
#  42   -2.82   -1.20    0.64    1.66   -0.15    0.00    0.00      -1.87    4.81   -0.43
#  43   -1.69   -1.89    0.99    0.32   -0.06    0.00    0.00      -2.34    0.71   -0.14
#  44   10.22   -1.80    0.38   -7.10    0.61    0.00    0.00       2.31  -16.19    1.38
#  45   -1.02   -0.66    0.04    0.16   -0.05    0.00    0.00      -1.53    0.47   -0.14
#  46   -1.19   -0.45    0.01    1.14   -0.11    0.00    0.00      -0.60    4.37   -0.43
#  47    1.01   -1.18    0.17   -1.76   -0.11    0.00    0.00      -1.86   -5.82   -0.36
#  48    0.52   -1.14    0.10   -1.06   -0.17    0.00    0.00      -1.74   -2.90   -0.46
#  49   -2.52   -0.42    0.12    0.99   -0.10    0.00    0.00      -1.93    2.69   -0.28
#  50   -2.36   -0.23    0.01    1.68   -0.07    0.00    0.00      -0.97    6.88   -0.28
#  51   -6.94   -0.01    0.00    2.87    0.07    0.00    0.00      -4.01   24.56    0.59
#  52   -7.48   -0.01    0.00    1.78    0.01    0.00    0.00      -5.69   26.53    0.21
#  53    0.06   -0.29    0.18    1.31   -0.04    0.00    0.00       1.23    9.17   -0.27
#  54    0.01   -0.37    0.30    1.91   -0.05    0.00    0.00       1.79   10.46   -0.28
#  55   -0.17   -0.03    0.00    0.15   -0.01    0.00    0.00      -0.06    4.22   -0.28
#  56   -0.54   -0.03    0.00    0.14   -0.01    0.00    0.00      -0.45    3.81   -0.28
#  57   -0.03   -0.04    0.00    0.18   -0.01    0.00    0.00       0.10    3.79   -0.28
#  58   -0.03   -0.04    0.00    0.20   -0.01    0.00    0.00       0.11    3.95   -0.28
#  59   -0.08   -0.01    0.00    0.06   -0.01    0.00    0.00      -0.04    2.54   -0.28
#  60   -0.13   -0.02    0.00    0.07   -0.01    0.00    0.00      -0.08    2.83   -0.28
#  61   -0.06   -0.01    0.00    0.06    0.00    0.00    0.00      -0.01    3.35   -0.28
#  62   -0.05   -0.01    0.00    0.05    0.00    0.00    0.00      -0.02    2.98   -0.28
#  63   -0.07   -0.01    0.00    0.08   -0.01    0.00    0.00      -0.01    4.17   -0.28
#  64   -0.09   -0.01    0.00    0.11    0.00    0.00    0.00       0.00    5.09   -0.22
#  65   -0.68    0.00    0.00    0.49    0.01    0.00    0.00      -0.18   17.09    0.35
#  66   -1.98   -0.01    0.00    1.94    0.09    0.00    0.00       0.03   13.38    0.59
#  67   -0.98   -0.02    0.00    1.85    0.07    0.00    0.00       0.93   14.89    0.59
#  68   -0.25   -0.06    0.01    0.49   -0.02    0.00    0.00       0.16    6.96   -0.24
#  69   -0.24   -0.02    0.00    0.12   -0.01    0.00    0.00      -0.16    4.13   -0.28
#  70   -2.37   -0.06    0.00    0.13   -0.02    0.00    0.00      -2.31    2.22   -0.28
#  71   -0.97   -0.04    0.00    0.17   -0.01    0.00    0.00      -0.84    4.32   -0.28
#  72   -0.11   -0.12    0.01    0.53   -0.03    0.00    0.00       0.27    4.57   -0.27
#  73   -0.17   -0.18    0.01    1.16   -0.05    0.00    0.00       0.78    5.91   -0.27
#  74   -0.13   -0.86    1.52    1.12   -0.10    0.00    0.00       1.55    3.04   -0.28
#  75   -0.10   -0.63    0.33    0.66   -0.10    0.00    0.00       0.15    1.81   -0.28
#  76   -0.01   -0.25    0.07    0.42   -0.05    0.00    0.00       0.17    2.31   -0.28
#  77   -0.05   -0.48    0.39    0.42   -0.07    0.00    0.00       0.20    1.60   -0.28
#  78   -0.07   -0.05    0.00    0.21   -0.01    0.00    0.00       0.08    3.93   -0.27
#  79   -0.06   -0.03    0.00    0.12   -0.01    0.00    0.00       0.01    3.86   -0.28
#  80   -3.99   -0.31    0.09    1.47   -0.06    0.00    0.00      -2.79    6.13   -0.25
#  81   -5.37   -0.95    2.37    2.00   -0.07    0.00    0.00      -2.03    7.74   -0.27
#  82   -6.47   -1.06    0.81    1.24   -0.15    0.00    0.00      -5.64    2.33   -0.28
#  83   -2.32   -0.78    0.93    0.97   -0.10    0.00    0.00      -1.30    2.66   -0.28
#  84   -3.66   -0.26    0.03    0.72   -0.07    0.00    0.00      -3.25    2.79   -0.28
#  85   -1.46   -0.15    0.01    0.49   -0.04    0.00    0.00      -1.16    3.18   -0.28
#  86   -1.43   -0.14    0.01    1.12   -0.03    0.00    0.00      -0.47    9.54   -0.27
#  87   -2.06   -0.16    0.00    1.03   -0.04    0.00    0.00      -1.21    6.62   -0.23
#  88   -0.72   -0.18    0.02    2.01   -0.03    0.00    0.00       1.10   12.96   -0.21
#  89   -1.33   -0.19    0.01    1.61   -0.06    0.00    0.00       0.04    7.82   -0.28

@<TRIPOS>MOLECULE
          T536174        11
   89    92     0     0     0



@<TRIPOS>ATOM
      1 Cl1         9.0150   -11.4875    98.3019 Cl         1          -0.0116
      2 C1          8.1161   -10.4698    97.2203 C.ar       1          -0.0146
      3 C2          7.6253    -9.2542    97.6633 C.ar       1          -0.0657
      4 C3          6.9099    -8.4426    96.8049 C.ar       1          -0.0761
      5 C4          6.6831    -8.8475    95.4959 C.ar       1           0.0725
      6 N1          5.9590    -8.0270    94.6240 N.pl3      1          -0.5817
      7 C5          6.2229    -8.0557    93.2736 C.cat      1           0.7446
      8 N2          7.4228    -8.3339    92.8504 N.pl3      1          -0.7329
      9 H1          8.1305    -8.5209    93.4868 H          1           0.4464
     10 H2          7.6088    -8.3541    91.8986 H          1           0.4587
     11 N3          5.2164    -7.7896    92.3683 N.pl3      1          -0.6453
     12 C6          3.9457    -7.4949    92.8168 C.cat      1           0.7563
     13 N4          2.9418    -8.2492    92.4708 N.pl3      1          -0.5499
     14 H3          2.0388    -8.0003    92.7227 H          1           0.4618
     15 C7          3.1764    -9.4732    91.7008 C.3        1           0.0372
     16 C8          3.1209    -9.1538    90.2056 C.3        1          -0.1402
     17 C9          3.3659   -10.4321    89.4015 C.3        1          -0.1189
     18 C10         3.3104   -10.1127    87.9062 C.3        1          -0.1180
     19 C11         3.5555   -11.3910    87.1021 C.3        1          -0.1363
     20 C12         3.5000   -11.0716    85.6069 C.3        1           0.0843
     21 N5          4.5312   -10.0838    85.2799 N.pl3      1          -0.6022
     22 C13         4.3332    -9.2034    84.2531 C.cat      1           0.7728
     23 N6          4.8856    -8.0058    84.2953 N.pl3      1          -0.5936
     24 H4          4.5277    -7.2873    83.7509 H          1           0.4531
     25 C14         5.9478    -7.7810    85.0950 C.2        1           0.6229
     26 N7          6.1428    -6.5905    85.6059 N.2        1          -0.7892
     27 N8          6.8305    -8.8061    85.3755 N.pl3      1          -0.6746
     28 C15         7.5132    -8.8269    86.5963 C.ar       1           0.1102
     29 C16         8.7772    -9.3968    86.6770 C.ar       1          -0.1594
     30 C17         9.4492    -9.4155    87.8833 C.ar       1          -0.0784
     31 C18         8.8641    -8.8675    89.0113 C.ar       1          -0.0339
     32 Cl2         9.7116    -8.8927    90.5261 Cl         1          -0.0336
     33 C19         7.6049    -8.2990    88.9338 C.ar       1          -0.0729
     34 C20         6.9309    -8.2724    87.7286 C.ar       1          -0.1062
     35 N9          3.5630    -9.5635    83.1830 N.pl3      1          -0.6667
     36 C21         2.8022    -8.5579    82.4246 C.3        1           0.0873
     37 C22         3.1108    -8.7409    80.9343 C.3        1           0.0430
     38 O1          2.8932   -10.1068    80.5729 O.3        1          -0.3606
     39 C23         3.7463   -11.0340    81.2485 C.3        1           0.0403
     40 C24         3.4748   -10.9676    82.7514 C.3        1           0.0948
     41 N10         3.7389    -6.4053    93.6288 N.pl3      1          -0.6890
     42 C25         4.5926    -5.2111    93.5263 C.3        1           0.0739
     43 C26         3.6882    -3.9792    93.4055 C.3        1           0.0447
     44 O2          2.7352    -3.9887    94.4711 O.3        1          -0.3523
     45 C27         1.8469    -5.1086    94.4520 C.3        1           0.0432
     46 C28         2.6534    -6.3962    94.6224 C.3        1           0.0651
     47 C29         7.1768   -10.0680    95.0538 C.ar       1          -0.1598
     48 C30         7.8965   -10.8731    95.9148 C.ar       1          -0.0744
     49 H5          7.8016    -8.9400    98.6815 H          1           0.1665
     50 H6          6.5267    -7.4941    97.1513 H          1           0.1611
     51 H7          5.2711    -7.4380    94.9713 H          1           0.4614
     52 H8          5.4023    -7.8098    91.4165 H          1           0.4592
     53 H9          4.1578    -9.8768    91.9500 H          1           0.1224
     54 H10         2.4090   -10.2082    91.9441 H          1           0.1256
     55 H11         2.1394    -8.7503    89.9564 H          1           0.0951
     56 H12         3.8883    -8.4189    89.9624 H          1           0.0948
     57 H13         4.3474   -10.8356    89.6507 H          1           0.0783
     58 H14         2.5987   -11.1670    89.6447 H          1           0.0790
     59 H15         2.3290    -9.7092    87.6571 H          1           0.0780
     60 H16         4.0777    -9.3777    87.6629 H          1           0.0769
     61 H17         4.5370   -11.7945    87.3512 H          1           0.0804
     62 H18         2.7881   -12.1260    87.3454 H          1           0.0853
     63 H19         3.6745   -11.9824    85.0340 H          1           0.1021
     64 H20         2.5185   -10.6682    85.3577 H          1           0.0965
     65 H21         5.3546   -10.0546    85.7918 H          1           0.4422
     66 H22         6.9443    -6.4092    86.1211 H          1           0.3802
     67 H23         6.9771    -9.5115    84.7259 H          1           0.4375
     68 H24         9.2340    -9.8253    85.7971 H          1           0.1299
     69 H25        10.4321    -9.8585    87.9465 H          1           0.1489
     70 H26         7.1503    -7.8723    89.8157 H          1           0.1530
     71 H27         5.9498    -7.8250    87.6678 H          1           0.1468
     72 H28         1.7352    -8.6968    82.5983 H          1           0.0976
     73 H29         3.0989    -7.5578    82.7409 H          1           0.0957
     74 H30         2.4551    -8.0996    80.3452 H          1           0.1242
     75 H31         4.1502    -8.4746    80.7422 H          1           0.0645
     76 H32         3.5479   -12.0425    80.8856 H          1           0.1256
     77 H33         4.7881   -10.7760    81.0576 H          1           0.0631
     78 H34         4.2167   -11.5626    83.2840 H          1           0.0970
     79 H35         2.4767   -11.3533    82.9587 H          1           0.1031
     80 H36         5.2125    -5.1252    94.4186 H          1           0.1048
     81 H37         5.2274    -5.2883    92.6436 H          1           0.1084
     82 H38         4.2943    -3.0752    93.4671 H          1           0.1356
     83 H39         3.1656    -4.0036    92.4494 H          1           0.0720
     84 H40         1.1282    -5.0172    95.2662 H          1           0.1371
     85 H41         1.3175    -5.1371    93.4995 H          1           0.0724
     86 H42         2.0046    -7.2579    94.4651 H          1           0.1154
     87 H43         3.0748    -6.4317    95.6270 H          1           0.1115
     88 H44         7.0016   -10.3853    94.0366 H          1           0.1354
     89 H45         8.2848   -11.8201    95.5701 H          1           0.1600
@<TRIPOS>BOND
     1    1    2 1
     2    2   48 ar
     3    2    3 ar
     4    3    4 ar
     5    3   49 1
     6    4    5 ar
     7    4   50 1
     8    5    6 1
     9    5   47 ar
    10    6    7 1
    11    6   51 1
    12    7    8 2
    13    7   11 1
    14    8    9 1
    15    8   10 1
    16   11   12 1
    17   11   52 1
    18   12   13 2
    19   12   41 1
    20   13   14 1
    21   13   15 1
    22   15   16 1
    23   15   53 1
    24   15   54 1
    25   16   17 1
    26   16   55 1
    27   16   56 1
    28   17   18 1
    29   17   57 1
    30   17   58 1
    31   18   19 1
    32   18   59 1
    33   18   60 1
    34   19   20 1
    35   19   61 1
    36   19   62 1
    37   20   21 1
    38   20   63 1
    39   20   64 1
    40   21   22 1
    41   21   65 1
    42   22   23 2
    43   22   35 1
    44   23   24 1
    45   23   25 1
    46   25   26 2
    47   25   27 1
    48   26   66 1
    49   27   28 1
    50   27   67 1
    51   28   34 ar
    52   28   29 ar
    53   29   30 ar
    54   29   68 1
    55   30   31 ar
    56   30   69 1
    57   31   32 1
    58   31   33 ar
    59   33   34 ar
    60   33   70 1
    61   34   71 1
    62   35   40 1
    63   35   36 1
    64   36   37 1
    65   36   72 1
    66   36   73 1
    67   37   38 1
    68   37   74 1
    69   37   75 1
    70   38   39 1
    71   39   40 1
    72   39   76 1
    73   39   77 1
    74   40   78 1
    75   40   79 1
    76   41   46 1
    77   41   42 1
    78   42   43 1
    79   42   80 1
    80   42   81 1
    81   43   44 1
    82   43   82 1
    83   43   83 1
    84   44   45 1
    85   45   46 1
    86   45   84 1
    87   45   85 1
    88   46   86 1
    89   46   87 1
    90   47   48 ar
    91   47   88 1
    92   48   89 1
##########                 Name:              T529912
##########          Protonation:                   26
##########               SMILES:   Oc1cc2c(nccc2[C@H](O)C[NH+]3CC[C@@H](CC3)[NH2+]CCOc4c(c(ccc4)C(F)(F)F)Cl)cc1
##########            Long Name:   -[(2S)-2-hydroxy-2-(6-methoxy-4-quinolyl)ethyl]piperidin-1-ium-4-yl]ammonium
##########          FlexRecCode: 1
##########               Number:                  304
##########   Ligand Source File: /raidb/db2/rgc/tcams/tcams-0000693.db2.gz
##########           GlobalRank: 350
##########                 Rank:                    1
##########               Setnum:                  389
##########             Matchnum:                 2307
##########                Cloud:                    1
##########        Electrostatic:           -46.387943
##########        Van der Waals:           -28.347496
##########  Ligand Polar Desolv:            14.230936
########## Ligand Apolar Desolv:            -4.168473
##########      Internal Energy:             0.000000
##########      Receptor Energy: 0.0
########## Receptor Desolvation:             0.000000
########## Receptor Hydrophobic:             0.000000
##########         Total Energy: -64.67
##########        Ligand Charge:             2.000000
##########            Arbitrary:    +999.9990
##########     heavy atom count:   36
##########           pose count:    1
##########        Ligand Energy:             0.000000
# num electro vdwattr vdwrepu polsolv apolsol rdesolv rhydroe totalscore fullpol fullapo
#   1   -0.55   -0.87    0.10    0.09    0.01    0.00    0.00      -1.21    0.24    0.03
#   2    9.62   -1.47    0.19   -2.92    0.41    0.00    0.00       5.83   -6.69    0.93
#   3   -2.56   -1.94    0.57    0.74   -0.12    0.00    0.00      -3.31    1.85   -0.31
#   4    1.45   -2.53    1.13   -1.38   -0.20    0.00    0.00      -1.53   -2.93   -0.43
#   5    0.12   -2.45    0.77   -0.93   -0.22    0.00    0.00      -2.71   -1.93   -0.46
#   6   -0.29   -2.78    2.49    0.11   -0.29    0.00    0.00      -0.76    0.28   -0.73
#   7    0.72   -4.23    6.26   -2.96    0.77    0.00    0.00       0.57   -7.68    2.00
#   8   -0.17   -1.99    1.11    0.42   -0.29    0.00    0.00      -0.91    1.43   -0.97
#   9    0.24   -0.77    0.12   -0.84   -0.09    0.00    0.00      -1.34   -3.97   -0.44
#  10    0.29   -0.77    0.13   -0.21   -0.07    0.00    0.00      -0.64   -0.99   -0.35
#  11   -0.84   -0.26    0.01    0.88   -0.02    0.00    0.00      -0.23    5.46   -0.11
#  12    2.10   -0.14    0.00   -1.42    0.11    0.00    0.00       0.65  -21.14    1.58
#  13    0.77   -0.62    0.07   -0.24   -0.08    0.00    0.00      -0.11   -0.94   -0.32
#  14    8.53   -0.58    0.07   -3.75    0.06    0.00    0.00       4.33  -17.86    0.27
#  15   -5.67    0.00    0.00    1.23    0.03    0.00    0.00      -4.41   22.78    0.49
#  16    0.06   -0.65    0.11   -0.06   -0.09    0.00    0.00      -0.64   -0.25   -0.38
#  17    3.74   -0.43    0.03   -1.88   -0.05    0.00    0.00       1.41   -8.78   -0.24
#  18   -0.41   -0.78    0.23    0.62   -0.06    0.00    0.00      -0.40    2.35   -0.23
#  19    4.32   -0.67    0.13   -2.24   -0.05    0.00    0.00       1.49   -9.13   -0.20
#  20    0.34   -0.95    0.45   -0.37   -0.09    0.00    0.00      -0.62   -1.48   -0.37
#  21    9.59   -0.78    0.08   -7.83    0.19    0.00    0.00       1.24  -26.60    0.63
#  22   -4.49   -0.01    0.00    3.55    0.08    0.00    0.00      -0.87   25.47    0.56
#  23   -8.23   -0.03    0.00    4.88    0.11    0.00    0.00      -3.26   22.95    0.53
#  24    0.07   -0.74    0.06    0.51   -0.16    0.00    0.00      -0.25    1.34   -0.42
#  25   -0.30   -0.91    0.10   -0.58   -0.04    0.00    0.00      -1.74   -1.32   -0.09
#  26    5.16   -1.56    0.33   -4.64    0.36    0.00    0.00      -0.36  -10.57    0.81
#  27   -1.64   -1.62    0.24    2.58   -0.15    0.00    0.00      -0.59    5.35   -0.31
#  28    2.91   -2.36    0.58   -2.18   -0.24    0.00    0.00      -1.30   -3.85   -0.42
#  29    1.07   -3.49    2.47   -1.10   -0.27    0.00    0.00      -1.32   -1.93   -0.47
#  30    0.68   -2.47    1.03   -1.53   -0.25    0.00    0.00      -2.54   -2.71   -0.44
#  31    1.14   -1.46    0.17   -1.63   -0.19    0.00    0.00      -1.97   -3.12   -0.37
#  32    0.20   -1.30    0.14   -0.63   -0.12    0.00    0.00      -1.70   -1.60   -0.30
#  33    0.21   -2.38    0.75   -0.34   -0.28    0.00    0.00      -2.03   -1.10   -0.90
#  34   -4.46   -1.06    0.09    3.13   -0.03    0.00    0.00      -2.33    5.87   -0.06
#  35    1.16   -1.84    0.67   -1.30   -0.27    0.00    0.00      -1.59   -2.09   -0.44
#  36    1.02   -1.38    0.58   -1.13   -0.23    0.00    0.00      -1.14   -2.23   -0.45
#  37    1.70   -0.89    0.10   -1.00   -0.21    0.00    0.00      -0.30   -2.18   -0.45
#  38    0.15   -1.53    0.62   -0.47   -0.11    0.00    0.00      -1.35   -1.68   -0.40
#  39    1.09   -1.42    0.44   -0.79   -0.13    0.00    0.00      -0.80   -2.58   -0.43
#  40   -2.00   -0.30    0.04    0.24   -0.09    0.00    0.00      -2.12    0.74   -0.27
#  41   -2.31   -0.47    0.18    0.40   -0.09    0.00    0.00      -2.30    1.19   -0.27
#  42   -2.22   -0.12    0.00    0.35   -0.03    0.00    0.00      -2.02    3.00   -0.28
#  43   -2.16   -0.57    0.38    0.87   -0.09    0.00    0.00      -1.57    2.03   -0.22
#  44   -0.59   -0.68    0.60    0.27   -0.13    0.00    0.00      -0.54    0.55   -0.28
#  45   -0.20   -0.39    0.16    0.73   -0.07    0.00    0.00       0.22    2.78   -0.28
#  46   -0.22   -0.07    0.00    0.52   -0.02    0.00    0.00       0.21    7.10   -0.22
#  47   -1.32   -0.06    0.00    0.33   -0.01    0.00    0.00      -1.05    6.64   -0.18
#  48   -1.77    0.00    0.00    0.53    0.03    0.00    0.00      -1.21   16.47    1.00
#  49   -4.52   -0.49    0.19    2.41   -0.09    0.00    0.00      -2.50    7.63   -0.28
#  50   -1.34   -0.19    0.02    1.54   -0.06    0.00    0.00      -0.02    7.79   -0.28
#  51   -6.23   -0.58    0.38    2.49   -0.08    0.00    0.00      -4.03    8.65   -0.28
#  52   -2.85   -0.12    0.01    0.91   -0.04    0.00    0.00      -2.08    7.09   -0.28
#  53   -3.16   -0.12    0.00    0.71   -0.03    0.00    0.00      -2.59    7.45   -0.28
#  54   -1.20   -0.11    0.01    0.64   -0.03    0.00    0.00      -0.69    6.33   -0.28
#  55   -7.37   -0.79    1.83    3.13   -0.07    0.00    0.00      -3.28   11.81   -0.28
#  56   -3.60   -0.40    0.21    1.86   -0.06    0.00    0.00      -2.00    7.12   -0.22
#  57   -1.74   -0.09    0.00    0.50   -0.02    0.00    0.00      -1.35    5.88   -0.28
#  58   -3.49   -0.12    0.01    0.69   -0.03    0.00    0.00      -2.94    5.80   -0.22
#  59   -7.41   -1.61    5.97    2.82   -0.08    0.00    0.00      -0.31    9.37   -0.28
#  60   -4.01   -0.31    0.05    2.91   -0.08    0.00    0.00      -1.45    7.77   -0.21
#  61   -3.31   -0.19    0.01    2.06   -0.05    0.00    0.00      -1.47   11.66   -0.28
#  62   -1.83   -0.46    0.23    1.55   -0.10    0.00    0.00      -0.61    3.95   -0.26
#  63   -0.89   -0.30    0.04    1.64   -0.07    0.00    0.00       0.42    6.10   -0.27
#  64   -3.45   -0.61    0.16    4.71   -0.12    0.00    0.00       0.68    8.30   -0.22
#  65   -3.20   -1.34    1.93    2.62   -0.17    0.00    0.00      -0.16    4.32   -0.28
#  66   -0.86   -0.59    0.17    1.03   -0.15    0.00    0.00      -0.40    1.76   -0.25
#  67   -1.98   -0.16    0.01    1.38   -0.03    0.00    0.00      -0.78    8.93   -0.22

@<TRIPOS>MOLECULE
          T529912        26
   67    70     0     0     0



@<TRIPOS>ATOM
      1 C1          8.7986    -5.0268    87.6695 C.3        1           0.0188
      2 O1          8.3850    -4.3696    86.4700 O.3        1          -0.3162
      3 C2          7.0900    -4.5334    86.0918 C.ar       1           0.1637
      4 C3          6.6282    -3.9193    84.9234 C.ar       1          -0.1771
      5 C4          5.3382    -4.0644    84.5188 C.ar       1          -0.0289
      6 C5          4.4490    -4.8425    85.2817 C.ar       1           0.0985
      7 N1          3.1760    -5.0016    84.9058 N.ar       1          -0.4352
      8 C6          2.3421    -5.7255    85.6119 C.ar       1           0.1196
      9 C7          2.7373    -6.3640    86.7855 C.ar       1          -0.1272
     10 C8          4.0241    -6.2432    87.2268 C.ar       1          -0.1067
     11 C9          4.4758    -6.9244    88.4928 C.3        1           0.1376
     12 O2          3.7198    -8.1215    88.6854 O.3        1          -0.5440
     13 C10         4.2582    -5.9868    89.6821 C.3        1          -0.0467
     14 N2          4.6985    -6.6510    90.9162 N.4        1          -0.3851
     15 H1          4.4242    -7.6216    90.8909 H          1           0.4316
     16 C11         4.0728    -5.9972    92.0718 C.3        1          -0.0022
     17 C12         4.4639    -6.7355    93.3539 C.3        1          -0.1707
     18 C13         5.9869    -6.7038    93.5102 C.3        1           0.0140
     19 C14         6.6310    -7.3211    92.2655 C.3        1          -0.1712
     20 C15         6.1595    -6.5596    91.0248 C.3        1          -0.0111
     21 N3          6.3750    -7.4758    94.6983 N.4        1          -0.5086
     22 H2          5.8087    -8.3089    94.7576 H          1           0.4380
     23 H3          7.3476    -7.7346    94.6285 H          1           0.4387
     24 C16         6.1709    -6.6583    95.9016 C.3        1          -0.0036
     25 C17         6.5750    -7.4625    97.1389 C.3        1           0.0205
     26 O3          7.9527    -7.8289    97.0400 O.3        1          -0.3199
     27 C18         8.3273    -8.9892    97.6406 C.ar       1           0.1194
     28 C19         8.7511    -8.9826    98.9613 C.ar       1          -0.1596
     29 C20         9.1309   -10.1633    99.5699 C.ar       1          -0.0679
     30 C21         9.0894   -11.3515    98.8639 C.ar       1          -0.0761
     31 C22         8.6679   -11.3617    97.5472 C.ar       1          -0.1350
     32 C23         8.2809   -10.1839    96.9352 C.ar       1          -0.0210
     33 Cl1         7.7448   -10.1979    95.2841 Cl         1          -0.0277
     34 C24         8.6249   -12.6582    96.7804 C.3        1           0.5088
     35 F1          9.0541   -13.7029    97.6061 F          1          -0.1646
     36 F2          7.3148   -12.9065    96.3572 F          1          -0.1663
     37 F3          9.4660   -12.5690    95.6659 F          1          -0.1644
     38 C25         4.9171    -5.4648    86.4658 C.ar       1          -0.0436
     39 C26         6.2558    -5.3007    86.8543 C.ar       1          -0.1875
     40 H4          9.8513    -4.8141    87.8560 H          1           0.0659
     41 H5          8.2011    -4.6653    88.5064 H          1           0.0645
     42 H6          8.6589    -6.1024    87.5611 H          1           0.1103
     43 H7          7.3063    -3.3204    84.3337 H          1           0.1478
     44 H8          4.9972    -3.5832    83.6141 H          1           0.1522
     45 H9          1.3213    -5.8297    85.2751 H          1           0.1714
     46 H10         2.0268    -6.9536    87.3458 H          1           0.1416
     47 H11         5.5345    -7.1720    88.4143 H          1           0.1357
     48 H12         3.9578    -8.6131    89.4836 H          1           0.3928
     49 H13         4.8350    -5.0737    89.5352 H          1           0.1502
     50 H14         3.1996    -5.7392    89.7606 H          1           0.1470
     51 H15         4.4115    -4.9628    92.1311 H          1           0.1439
     52 H16         2.9890    -6.0178    91.9576 H          1           0.1530
     53 H17         3.9997    -6.2475    94.2109 H          1           0.1397
     54 H18         4.1254    -7.7701    93.2958 H          1           0.1148
     55 H19         6.3208    -5.6720    93.6197 H          1           0.1601
     56 H20         7.7159    -7.2518    92.3447 H          1           0.1385
     57 H21         6.3375    -8.3678    92.1849 H          1           0.1171
     58 H22         6.6172    -6.9956    90.1368 H          1           0.1524
     59 H23         6.4525    -5.5129    91.1069 H          1           0.1457
     60 H24         6.7826    -5.7583    95.8374 H          1           0.1478
     61 H25         5.1202    -6.3788    95.9771 H          1           0.1603
     62 H26         6.4236    -6.8560    98.0319 H          1           0.1208
     63 H27         5.9634    -8.3624    97.2030 H          1           0.0955
     64 H28         8.7845    -8.0550    99.5135 H          1           0.1480
     65 H29         9.4609   -10.1582   100.5983 H          1           0.1560
     66 H30         9.3871   -12.2731    99.3417 H          1           0.1608
     67 H31         6.6229    -5.7744    87.7526 H          1           0.1250
@<TRIPOS>BOND
     1    1    2 1
     2    1   40 1
     3    1   41 1
     4    1   42 1
     5    2    3 1
     6    3   39 ar
     7    3    4 ar
     8    4    5 ar
     9    4   43 1
    10    5    6 ar
    11    5   44 1
    12    6   38 ar
    13    6    7 ar
    14    7    8 ar
    15    8    9 ar
    16    8   45 1
    17    9   10 ar
    18    9   46 1
    19   10   11 1
    20   10   38 ar
    21   11   12 1
    22   11   13 1
    23   11   47 1
    24   12   48 1
    25   13   14 1
    26   13   49 1
    27   13   50 1
    28   14   15 1
    29   14   20 1
    30   14   16 1
    31   16   17 1
    32   16   51 1
    33   16   52 1
    34   17   18 1
    35   17   53 1
    36   17   54 1
    37   18   19 1
    38   18   21 1
    39   18   55 1
    40   19   20 1
    41   19   56 1
    42   19   57 1
    43   20   58 1
    44   20   59 1
    45   21   22 1
    46   21   23 1
    47   21   24 1
    48   24   25 1
    49   24   60 1
    50   24   61 1
    51   25   26 1
    52   25   62 1
    53   25   63 1
    54   26   27 1
    55   27   32 ar
    56   27   28 ar
    57   28   29 ar
    58   28   64 1
    59   29   30 ar
    60   29   65 1
    61   30   31 ar
    62   30   66 1
    63   31   32 ar
    64   31   34 1
    65   32   33 1
    66   34   35 1
    67   34   36 1
    68   34   37 1
    69   38   39 ar
    70   39   67 1
##########                 Name:              T528988
##########          Protonation:                   94
##########               SMILES:   c1ccc2c(c1)n(c(=[NH2+])n2C[C@@H](c3cccc(c3)Br)O)CC[NH+]4CCCCC4
##########            Long Name:   ydroxy-ethyl]-3-(2-piperidin-1-ium-1-ylethyl)benzimidazol-2-ylidene]ammonium
##########          FlexRecCode: 1
##########               Number:                  253
##########   Ligand Source File: /raidb/db2/rgc/tcams/tcams-0000538.db2.gz
##########           GlobalRank: 351
##########                 Rank:                    1
##########               Setnum:                  161
##########             Matchnum:                  868
##########                Cloud:                    1
##########        Electrostatic:           -42.589222
##########        Van der Waals:           -25.823212
##########  Ligand Polar Desolv:             8.212301
########## Ligand Apolar Desolv:            -4.461914
##########      Internal Energy:             0.000000
##########      Receptor Energy: 0.0
########## Receptor Desolvation:             0.000000
########## Receptor Hydrophobic:             0.000000
##########         Total Energy: -64.66
##########        Ligand Charge:             2.000000
##########            Arbitrary:    +999.9990
##########     heavy atom count:   28
##########           pose count:    1
##########        Ligand Energy:             0.000000
# num electro vdwattr vdwrepu polsolv apolsol rdesolv rhydroe totalscore fullpol fullapo
#   1    3.02   -1.69    0.38   -6.52    0.64    0.00    0.00      -4.17  -16.66    1.63
#   2   -0.99   -0.85    0.11    1.70   -0.05    0.00    0.00      -0.08    4.99   -0.15
#   3   -0.98   -1.16    0.43    0.90   -0.13    0.00    0.00      -0.94    2.75   -0.41
#   4    9.19   -1.15    0.20   -5.24    0.33    0.00    0.00       3.33  -18.34    1.15
#   5  -18.26   -1.04    0.17    8.34   -1.41    0.00    0.00     -12.20   28.85   -4.87
#   6   20.82   -1.13    0.09  -12.36    0.34    0.00    0.00       7.75  -32.88    0.90
#   7  -10.24   -0.02    0.00    4.50    0.11    0.00    0.00      -5.64   20.75    0.53
#   8  -13.62   -0.02    0.00    5.59    0.12    0.00    0.00      -7.92   23.84    0.53
#   9   16.17   -1.42    0.74   -5.06    0.30    0.00    0.00      10.72  -20.01    1.19
#  10   -3.32   -1.45    0.95    0.74   -0.13    0.00    0.00      -3.21    2.44   -0.43
#  11    0.78   -0.48    0.03   -0.33   -0.09    0.00    0.00      -0.09   -1.40   -0.38
#  12    7.05   -0.49    0.01   -3.78    0.06    0.00    0.00       2.85  -16.54    0.27
#  13   -7.17   -0.01    0.00    2.22    0.05    0.00    0.00      -4.90   23.66    0.54
#  14    0.21   -0.45    0.02    0.03   -0.09    0.00    0.00      -0.28    0.11   -0.37
#  15    2.07   -0.96    0.16   -2.22   -0.10    0.00    0.00      -1.06   -5.36   -0.25
#  16    4.12   -1.52    0.97   -2.55   -0.13    0.00    0.00       0.89   -5.05   -0.25
#  17    3.70   -1.02    0.11   -2.35   -0.11    0.00    0.00       0.32   -5.31   -0.25
#  18    0.16   -0.70    0.05    0.36   -0.13    0.00    0.00      -0.27    1.01   -0.38
#  19   -1.76   -0.83    0.15    0.83   -0.16    0.00    0.00      -1.77    3.68   -0.73
#  20    1.77   -0.49    0.04   -0.42   -0.08    0.00    0.00       0.82   -2.47   -0.46
#  21    0.90   -0.27    0.01   -0.47   -0.05    0.00    0.00       0.12   -4.10   -0.47
#  22    0.72   -0.39    0.03   -0.53   -0.07    0.00    0.00      -0.23   -3.85   -0.47
#  23    0.93   -1.05    0.41   -0.72   -0.10    0.00    0.00      -0.52   -3.48   -0.46
#  24   -1.78   -0.97    0.19    0.62   -0.17    0.00    0.00      -2.11    2.52   -0.69
#  25    1.03   -1.46    0.21   -0.98   -0.13    0.00    0.00      -1.32   -2.60   -0.34
#  26    1.11   -1.75    0.44   -1.02   -0.20    0.00    0.00      -1.43   -2.19   -0.44
#  27    1.22   -2.22    0.89   -1.44   -0.25    0.00    0.00      -1.80   -2.69   -0.47
#  28    0.56   -2.11    0.48   -1.38   -0.27    0.00    0.00      -2.71   -2.39   -0.46
#  29    0.65   -1.67    0.18   -1.30   -0.17    0.00    0.00      -2.31   -2.31   -0.30
#  30    0.32   -9.47    7.45   -0.96   -0.64    0.00    0.00      -3.32   -1.64   -1.09
#  31    0.44   -1.51    0.19   -0.76   -0.19    0.00    0.00      -1.83   -1.74   -0.44
#  32   -3.96   -0.03    0.00    3.69    0.30    0.00    0.00       0.00   11.84    0.96
#  33   -0.22   -0.35    0.13    1.29   -0.06    0.00    0.00       0.78    5.68   -0.28
#  34   -2.45   -0.33    0.07    1.03   -0.07    0.00    0.00      -1.76    3.96   -0.28
#  35   -1.76   -1.15    2.34    1.81   -0.07    0.00    0.00       1.19    6.67   -0.25
#  36   -6.63   -0.63    0.47    2.69   -0.07    0.00    0.00      -4.17    8.27   -0.21
#  37   -5.67   -0.79    0.83    3.36   -0.08    0.00    0.00      -2.35   10.74   -0.25
#  38   -2.62   -0.23    0.04    1.90   -0.06    0.00    0.00      -0.96    9.66   -0.28
#  39   -2.08   -0.08    0.00    0.49   -0.02    0.00    0.00      -1.68    7.08   -0.28
#  40   -2.06   -0.11    0.00    0.77   -0.03    0.00    0.00      -1.44    6.19   -0.28
#  41   -0.67   -0.14    0.01    1.13   -0.03    0.00    0.00       0.31    9.31   -0.22
#  42   -1.78   -0.40    0.07    0.76   -0.12    0.00    0.00      -1.46    1.79   -0.28
#  43   -0.38   -0.49    0.37    1.27   -0.09    0.00    0.00       0.67    3.76   -0.28
#  44   -3.40   -1.00    2.85    0.52   -0.10    0.00    0.00      -1.13    1.51   -0.28
#  45   -3.03   -0.76    0.60   -0.17   -0.14    0.00    0.00      -3.50   -0.33   -0.28
#  46   -3.26   -0.60    0.19    0.63   -0.13    0.00    0.00      -3.17    1.32   -0.28
#  47   -1.97   -0.27    0.02    1.11   -0.09    0.00    0.00      -1.19    3.62   -0.28
#  48   -3.93   -0.29    0.03    2.31   -0.08    0.00    0.00      -1.96    8.04   -0.28
#  49   -3.22   -0.21    0.01    1.26   -0.06    0.00    0.00      -2.22    5.51   -0.28
#  50   -2.80   -0.10    0.01    0.79   -0.03    0.00    0.00      -2.13    8.30   -0.28
#  51   -1.43   -0.03    0.00    0.12   -0.01    0.00    0.00      -1.35    3.58   -0.28
#  52   -1.11   -0.05    0.00    0.13   -0.01    0.00    0.00      -1.05    2.53   -0.28
#  53   -1.45   -0.42    0.49    0.70   -0.05    0.00    0.00      -0.73    4.06   -0.27
#  54   -2.01   -0.30    0.02    1.74   -0.08    0.00    0.00      -0.62    4.97   -0.23
#  55   -2.43   -0.59    0.27    1.15   -0.14    0.00    0.00      -1.74    2.33   -0.28
#  56   -0.63   -0.60    0.21    0.62   -0.16    0.00    0.00      -0.57    1.10   -0.28
#  57   -0.44   -0.34    0.06    1.66   -0.08    0.00    0.00       0.85    5.64   -0.28

@<TRIPOS>MOLECULE
          T528988        94
   57    60     0     0     0



@<TRIPOS>ATOM
      1 O1          5.5321    -8.6825    96.8194 O.3        1          -0.5382
      2 C1          6.5707    -9.2495    96.0183 C.3        1           0.1436
      3 C2          7.4091    -8.1281    95.4016 C.3        1           0.0645
      4 N1          6.7148    -7.5863    94.2309 N.pl3      1          -0.4636
      5 C3          5.8234    -6.5436    94.2353 C.cat      1           0.6609
      6 N2          5.4505    -5.8660    95.2881 N.pl3      1          -0.7609
      7 H1          5.8118    -6.0877    96.1605 H          1           0.4494
      8 H2          4.8125    -5.1411    95.1973 H          1           0.4402
      9 N3          5.3882    -6.3293    92.9521 N.pl3      1          -0.4883
     10 C4          4.4297    -5.3050    92.5296 C.3        1           0.0855
     11 C5          3.0116    -5.8755    92.5956 C.3        1          -0.0371
     12 N4          2.7130    -6.2869    93.9739 N.4        1          -0.3795
     13 H3          3.5282    -6.7232    94.3776 H          1           0.4249
     14 C6          1.6004    -7.2442    93.9670 C.3        1          -0.0170
     15 C7          1.3383    -7.7378    95.3916 C.3        1          -0.1460
     16 C8          0.9811    -6.5439    96.2819 C.3        1          -0.1426
     17 C9          2.1166    -5.5180    96.2228 C.3        1          -0.1468
     18 C10         2.3480    -5.1069    94.7670 C.3        1          -0.0066
     19 C11         6.0166    -7.2544    92.1193 C.ar       1           0.0719
     20 C12         5.9494    -7.4897    90.7538 C.ar       1          -0.0914
     21 C13         6.7038    -8.5007    90.1912 C.ar       1          -0.0736
     22 C14         7.5266    -9.2810    90.9847 C.ar       1          -0.0711
     23 C15         7.5996    -9.0546    92.3452 C.ar       1          -0.0766
     24 C16         6.8503    -8.0373    92.9185 C.ar       1           0.0978
     25 C17         7.4504   -10.1196    96.8786 C.ar       1          -0.1398
     26 C18         8.1211    -9.5724    97.9569 C.ar       1          -0.0917
     27 C19         8.9277   -10.3699    98.7466 C.ar       1          -0.0992
     28 C20         9.0644   -11.7151    98.4587 C.ar       1          -0.0710
     29 C21         8.3938   -12.2628    97.3802 C.ar       1          -0.0876
     30 Br1         8.5804   -14.1028    96.9858 Br         1          -0.0257
     31 C22         7.5823   -11.4652    96.5931 C.ar       1          -0.0795
     32 H4          5.8525    -8.1328    97.5473 H          1           0.3831
     33 H5          6.1293    -9.8519    95.2242 H          1           0.1146
     34 H6          7.5537    -7.3364    96.1368 H          1           0.1328
     35 H7          8.3784    -8.5237    95.0983 H          1           0.1219
     36 H8          4.5053    -4.4419    93.1911 H          1           0.1411
     37 H9          4.6513    -4.9997    91.5071 H          1           0.1245
     38 H10         2.2984    -5.1135    92.2813 H          1           0.1388
     39 H11         2.9360    -6.7387    91.9344 H          1           0.1486
     40 H12         0.7049    -6.7570    93.5812 H          1           0.1361
     41 H13         1.8548    -8.0917    93.3304 H          1           0.1283
     42 H14         0.5107    -8.4470    95.3845 H          1           0.1186
     43 H15         2.2333    -8.2254    95.7782 H          1           0.0908
     44 H16         0.0580    -6.0870    95.9257 H          1           0.0850
     45 H17         0.8490    -6.8824    97.3095 H          1           0.1004
     46 H18         1.8452    -4.6406    96.8099 H          1           0.1190
     47 H19         3.0276    -5.9595    96.6266 H          1           0.0907
     48 H20         3.1548    -4.3754    94.7215 H          1           0.1327
     49 H21         1.4361    -4.6665    94.3637 H          1           0.1339
     50 H22         5.3080    -6.8834    90.1314 H          1           0.1418
     51 H23         6.6511    -8.6834    89.1281 H          1           0.1571
     52 H24         8.1134   -10.0702    90.5384 H          1           0.1586
     53 H25         8.2423    -9.6659    92.9614 H          1           0.1469
     54 H26         8.0148    -8.5215    98.1820 H          1           0.1294
     55 H27         9.4516    -9.9421    99.5886 H          1           0.1440
     56 H28         9.6950   -12.3381    99.0755 H          1           0.1442
     57 H29         7.0549   -11.8934    95.7536 H          1           0.1322
@<TRIPOS>BOND
     1    1    2 1
     2    1   32 1
     3    2    3 1
     4    2   25 1
     5    2   33 1
     6    3    4 1
     7    3   34 1
     8    3   35 1
     9    4   24 1
    10    4    5 1
    11    5    6 2
    12    5    9 1
    13    6    7 1
    14    6    8 1
    15    9   10 1
    16    9   19 1
    17   10   11 1
    18   10   36 1
    19   10   37 1
    20   11   12 1
    21   11   38 1
    22   11   39 1
    23   12   13 1
    24   12   18 1
    25   12   14 1
    26   14   15 1
    27   14   40 1
    28   14   41 1
    29   15   16 1
    30   15   42 1
    31   15   43 1
    32   16   17 1
    33   16   44 1
    34   16   45 1
    35   17   18 1
    36   17   46 1
    37   17   47 1
    38   18   48 1
    39   18   49 1
    40   19   24 ar
    41   19   20 ar
    42   20   21 ar
    43   20   50 1
    44   21   22 ar
    45   21   51 1
    46   22   23 ar
    47   22   52 1
    48   23   24 ar
    49   23   53 1
    50   25   31 ar
    51   25   26 ar
    52   26   27 ar
    53   26   54 1
    54   27   28 ar
    55   27   55 1
    56   28   29 ar
    57   28   56 1
    58   29   30 1
    59   29   31 ar
    60   31   57 1
##########                 Name:              T531496
##########          Protonation:                   74
##########               SMILES:   c1cc2c(cc1NC(=O)Nc3ccc(c(c3)Cl)Cl)c(cc[nH+]2)N4CC[NH2+]CC4
##########            Long Name:   1-(3,4-dichlorophenyl)-3-(4-piperazin-4-ium-1-ylquinolin-1-ium-6-yl)urea
##########          FlexRecCode: 1
##########               Number:                  283
##########   Ligand Source File: /raidb/db2/rgc/tcams/tcams-0000874.db2.gz
##########           GlobalRank: 353
##########                 Rank:                    1
##########               Setnum:                   45
##########             Matchnum:                 3129
##########                Cloud:                    1
##########        Electrostatic:           -41.108074
##########        Van der Waals:           -27.108604
##########  Ligand Polar Desolv:             6.286124
########## Ligand Apolar Desolv:            -2.722726
##########      Internal Energy:             0.000000
##########      Receptor Energy: 0.0
########## Receptor Desolvation:             0.000000
########## Receptor Hydrophobic:             0.000000
##########         Total Energy: -64.65
##########        Ligand Charge:             2.000000
##########            Arbitrary:    +999.9990
##########     heavy atom count:   28
##########           pose count:    1
##########        Ligand Energy:             0.000000
# num electro vdwattr vdwrepu polsolv apolsol rdesolv rhydroe totalscore fullpol fullapo
#   1    0.27   -6.01    2.68   -0.48   -0.55    0.00    0.00      -4.09   -0.84   -0.95
#   2    0.32   -1.36    0.09   -0.50   -0.15    0.00    0.00      -1.60   -0.96   -0.30
#   3    0.68   -1.63    0.27   -0.57   -0.24    0.00    0.00      -1.49   -1.07   -0.46
#   4    1.14   -1.71    0.44   -0.69   -0.18    0.00    0.00      -0.99   -1.53   -0.40
#   5   -1.56   -1.30    0.14    1.27   -0.25    0.00    0.00      -1.70    3.51   -0.68
#   6    8.75   -1.23    0.09   -5.38    0.65    0.00    0.00       2.88  -14.06    1.70
#   7   -8.52   -1.03    0.08    4.99   -0.68    0.00    0.00      -5.16   14.80   -2.02
#   8    2.20   -1.52    0.71   -3.03    0.09    0.00    0.00      -1.55  -10.24    0.29
#   9   13.07   -0.99    0.06   -6.16    0.60    0.00    0.00       6.59  -17.20    1.69
#  10   -4.51   -0.79    0.03    0.95   -0.19    0.00    0.00      -4.51    3.29   -0.67
#  11    0.76   -1.01    0.05   -1.17   -0.15    0.00    0.00      -1.51   -3.11   -0.40
#  12    2.48   -0.87    0.04   -1.20   -0.15    0.00    0.00       0.29   -3.64   -0.46
#  13   -2.40   -0.63    0.02    0.98   -0.17    0.00    0.00      -2.20    4.13   -0.73
#  14    6.79   -0.69    0.04   -4.16    0.23    0.00    0.00       2.21  -17.32    0.97
#  15   -8.47   -0.01    0.00    2.58    0.08    0.00    0.00      -5.82   17.99    0.58
#  16   -1.73   -0.81    0.18    2.16   -0.20    0.00    0.00      -0.40   10.34   -0.96
#  17    1.56   -0.61    0.08   -1.30   -0.09    0.00    0.00      -0.36   -6.81   -0.47
#  18   -5.15   -0.52    0.03    2.69   -0.11    0.00    0.00      -3.06   13.90   -0.55
#  19   12.12   -0.47    0.02   -5.00    0.20    0.00    0.00       6.87  -29.71    1.18
#  20   -3.39   -0.98    0.36    1.18   -0.13    0.00    0.00      -2.95    4.49   -0.49
#  21    0.73   -1.08    0.53    0.02   -0.13    0.00    0.00       0.08    0.08   -0.48
#  22    8.43   -0.37    0.02   -4.08    0.15    0.00    0.00       4.16  -23.87    0.89
#  23   -5.80    0.00    0.00    1.06    0.03    0.00    0.00      -4.72   22.79    0.56
#  24   -6.68   -0.01    0.00    2.67    0.07    0.00    0.00      -3.95   23.42    0.57
#  25    0.25   -0.21    0.01    0.00   -0.07    0.00    0.00      -0.02    0.00   -0.48
#  26   -0.96   -0.17    0.00    0.48   -0.05    0.00    0.00      -0.71    4.52   -0.50
#  27    1.21   -0.57    0.02   -0.66   -0.08    0.00    0.00      -0.09   -3.11   -0.40
#  28    2.62   -0.67    0.04   -0.34   -0.10    0.00    0.00       1.56   -1.56   -0.44
#  29    0.82   -1.18    0.14   -0.59   -0.15    0.00    0.00      -0.95   -1.82   -0.45
#  30    0.09   -1.15    0.09   -0.20   -0.12    0.00    0.00      -1.29   -0.49   -0.30
#  31    0.29   -2.87    0.89   -0.29   -0.34    0.00    0.00      -2.33   -0.82   -0.95
#  32   -1.24   -0.41    0.09    0.98   -0.13    0.00    0.00      -0.72    2.07   -0.28
#  33   -2.29   -0.40    0.10    0.93   -0.08    0.00    0.00      -1.73    2.52   -0.21
#  34   -6.78   -0.02    0.00    3.08    0.16    0.00    0.00      -3.56   11.63    0.59
#  35   -9.31   -0.02    0.00    3.38    0.14    0.00    0.00      -5.81   14.13    0.59
#  36   -3.85   -0.30    0.03    0.36   -0.07    0.00    0.00      -3.84    1.10   -0.22
#  37   -4.49   -0.23    0.02    1.13   -0.07    0.00    0.00      -3.63    4.53   -0.28
#  38   -1.14   -0.16    0.03    1.65   -0.04    0.00    0.00       0.34   12.57   -0.28
#  39   -0.76   -0.09    0.01    1.08   -0.03    0.00    0.00       0.21   11.03   -0.28
#  40   -2.02   -0.17    0.02    0.67   -0.04    0.00    0.00      -1.54    4.28   -0.28
#  41   -5.88   -1.05    1.58    1.17   -0.08    0.00    0.00      -4.27    3.72   -0.27
#  42   -5.38   -0.51    0.28    2.00   -0.08    0.00    0.00      -3.69    7.06   -0.28
#  43   -5.17   -0.46    0.37    1.71   -0.07    0.00    0.00      -3.62    6.88   -0.28
#  44   -0.95   -0.05    0.00    0.31   -0.01    0.00    0.00      -0.70    7.34   -0.28
#  45   -1.66   -0.09    0.00    0.54   -0.02    0.00    0.00      -1.23    6.86   -0.28
#  46   -0.43   -0.08    0.01    0.32   -0.02    0.00    0.00      -0.20    4.13   -0.27
#  47   -0.56   -0.03    0.00    0.15   -0.01    0.00    0.00      -0.44    4.62   -0.28
#  48   -3.66   -0.13    0.01    0.95   -0.03    0.00    0.00      -2.86    8.09   -0.27
#  49   -0.93   -0.19    0.02    0.61   -0.05    0.00    0.00      -0.55    3.49   -0.28

@<TRIPOS>MOLECULE
          T531496        74
   49    52     0     0     0



@<TRIPOS>ATOM
      1 Cl1         9.3887   -13.6559    96.8629 Cl         1          -0.0304
      2 C1          8.7104   -12.0586    96.8151 C.ar       1          -0.0386
      3 C2          8.7985   -11.2372    97.9252 C.ar       1          -0.0760
      4 C3          8.2602    -9.9659    97.8898 C.ar       1          -0.1033
      5 C4          7.6299    -9.5113    96.7388 C.ar       1           0.1610
      6 N1          7.0840    -8.2228    96.7009 N.am       1          -0.6657
      7 C5          6.0109    -7.9679    95.9264 C.2        1           0.7072
      8 O1          5.5169    -8.8573    95.2604 O.2        1          -0.5423
      9 N2          5.4853    -6.7275    95.8898 N.am       1          -0.6821
     10 C6          4.3707    -6.4628    95.0853 C.ar       1           0.2212
     11 C7          3.1894    -5.9930    95.6687 C.ar       1          -0.0358
     12 C8          2.0922    -5.7275    94.9108 C.ar       1          -0.1102
     13 C9          2.1342    -5.9248    93.5195 C.ar       1           0.1278
     14 N3          1.0641    -5.6688    92.7572 N.ar       1          -0.4458
     15 H1          0.2523    -5.3431    93.1766 H          1           0.4542
     16 C10         1.0848    -5.8466    91.4572 C.ar       1           0.2098
     17 C11         2.2160    -6.3102    90.7986 C.ar       1          -0.1771
     18 C12         3.3621    -6.5965    91.5224 C.ar       1           0.3178
     19 N4          4.5078    -7.0615    90.8936 N.pl3      1          -0.6910
     20 C13         5.5314    -6.1277    90.3993 C.3        1           0.1128
     21 C14         6.8976    -6.5828    90.9230 C.3        1          -0.0232
     22 N5          7.1231    -7.9840    90.5464 N.4        1          -0.5059
     23 H2          7.0316    -8.0810    89.5462 H          1           0.4311
     24 H3          8.0521    -8.2609    90.8263 H          1           0.4409
     25 C15         6.1379    -8.8456    91.2121 C.3        1          -0.0233
     26 C16         4.7367    -8.5028    90.7077 C.3        1           0.1125
     27 C17         3.3269    -6.4000    92.9241 C.ar       1          -0.0621
     28 C18         4.4476    -6.6618    93.7236 C.ar       1          -0.1201
     29 C19         7.5422   -10.3364    95.6259 C.ar       1          -0.1196
     30 C20         8.0872   -11.6063    95.6643 C.ar       1          -0.0117
     31 Cl2         7.9849   -12.6368    94.2709 Cl         1          -0.0267
     32 H4          9.2884   -11.5908    98.8205 H          1           0.1515
     33 H5          8.3291    -9.3257    98.7569 H          1           0.1485
     34 H6          7.4779    -7.5133    97.2323 H          1           0.4167
     35 H7          5.8795    -6.0180    96.4211 H          1           0.4207
     36 H8          3.1483    -5.8394    96.7370 H          1           0.1730
     37 H9          1.1881    -5.3653    95.3777 H          1           0.1685
     38 H10         0.1968    -5.6264    90.8833 H          1           0.2163
     39 H11         2.2024    -6.4472    89.7274 H          1           0.1830
     40 H12         5.5365    -6.1333    89.3093 H          1           0.0955
     41 H13         5.3163    -5.1227    90.7623 H          1           0.1230
     42 H14         7.6793    -5.9595    90.4889 H          1           0.1504
     43 H15         6.9199    -6.4902    92.0088 H          1           0.1374
     44 H16         6.3598    -9.8896    90.9910 H          1           0.1507
     45 H17         6.1831    -8.6846    92.2891 H          1           0.1372
     46 H18         3.9964    -9.0673    91.2746 H          1           0.1231
     47 H19         4.6602    -8.7523    89.6494 H          1           0.0949
     48 H20         5.3629    -7.0208    93.2769 H          1           0.1555
     49 H21         7.0522    -9.9852    94.7298 H          1           0.1487
@<TRIPOS>BOND
     1    1    2 1
     2    2   30 ar
     3    2    3 ar
     4    3    4 ar
     5    3   32 1
     6    4    5 ar
     7    4   33 1
     8    5    6 1
     9    5   29 ar
    10    6    7 am
    11    6   34 1
    12    7    8 2
    13    7    9 am
    14    9   10 1
    15    9   35 1
    16   10   28 ar
    17   10   11 ar
    18   11   12 ar
    19   11   36 1
    20   12   13 ar
    21   12   37 1
    22   13   27 ar
    23   13   14 ar
    24   14   15 1
    25   14   16 ar
    26   16   17 ar
    27   16   38 1
    28   17   18 ar
    29   17   39 1
    30   18   19 1
    31   18   27 ar
    32   19   26 1
    33   19   20 1
    34   20   21 1
    35   20   40 1
    36   20   41 1
    37   21   22 1
    38   21   42 1
    39   21   43 1
    40   22   23 1
    41   22   24 1
    42   22   25 1
    43   25   26 1
    44   25   44 1
    45   25   45 1
    46   26   46 1
    47   26   47 1
    48   27   28 ar
    49   28   48 1
    50   29   30 ar
    51   29   49 1
    52   30   31 1
##########                 Name:              T537834
##########          Protonation:                   98
##########               SMILES:   c(c(cc1/C=C/C(=O)NCCCCC[NH+]2CCCN(CC2)/C(=[NH+]/c3ccc(c(c3)Cl)Cl)/[S-])Cl)Cl
##########            Long Name:   orophenyl)prop-2-enoyl]amino]pentyl]-1,4-diazepan-4-ium-1-yl]methanethiolate
##########          FlexRecCode: 1
##########               Number:                   45
##########   Ligand Source File: /raidb/db2/rgc/tcams/tcams-0001781.db2.gz
##########           GlobalRank: 353
##########                 Rank:                    1
##########               Setnum:                  186
##########             Matchnum:                 2911
##########                Cloud:                    1
##########        Electrostatic:           -34.810555
##########        Van der Waals:           -31.338047
##########  Ligand Polar Desolv:             7.134613
########## Ligand Apolar Desolv:            -5.631910
##########      Internal Energy:             0.000000
##########      Receptor Energy: 0.0
########## Receptor Desolvation:             0.000000
########## Receptor Hydrophobic:             0.000000
##########         Total Energy: -64.65
##########        Ligand Charge:             1.000000
##########            Arbitrary:    +999.9990
##########     heavy atom count:   36
##########           pose count:    1
##########        Ligand Energy:             0.000000
# num electro vdwattr vdwrepu polsolv apolsol rdesolv rhydroe totalscore fullpol fullapo
#   1    1.41   -5.40    6.43   -3.27   -0.36    0.00    0.00      -1.19   -7.87   -0.87
#   2   -7.91   -1.07    0.08    3.64   -0.64    0.00    0.00      -5.90   10.22   -1.81
#   3   10.80   -1.02    0.06   -4.11    0.38    0.00    0.00       6.10  -11.12    1.02
#   4   -9.43   -0.02    0.00    2.64    0.11    0.00    0.00      -6.70   10.08    0.43
#   5   -1.50   -1.16    0.09    0.78   -0.23    0.00    0.00      -2.02    2.16   -0.64
#   6    0.48   -1.54    0.45   -0.40   -0.15    0.00    0.00      -1.17   -1.21   -0.46
#   7    0.26   -1.69    0.35   -0.35   -0.17    0.00    0.00      -1.60   -0.96   -0.46
#   8    0.17   -1.51    0.24   -0.20   -0.13    0.00    0.00      -1.43   -0.48   -0.30
#   9    0.24   -3.25    0.47   -0.24   -0.54    0.00    0.00      -3.33   -0.43   -0.95
#  10    0.23   -1.70    0.42   -0.17   -0.13    0.00    0.00      -1.35   -0.39   -0.30
#  11    0.47   -4.83    2.61   -0.23   -0.53    0.00    0.00      -2.50   -0.41   -0.95
#  12    0.85   -1.48    0.16   -0.27   -0.16    0.00    0.00      -0.90   -0.60   -0.35
#  13   13.96   -1.09    0.07   -4.68    0.43    0.00    0.00       8.69  -13.00    1.20
#  14   -2.95   -1.02    0.20    0.69   -0.19    0.00    0.00      -3.26    1.67   -0.46
#  15    5.70   -1.16    0.44   -1.58   -0.08    0.00    0.00       3.31   -4.56   -0.24
#  16    0.41   -0.90    0.17   -0.20   -0.12    0.00    0.00      -0.64   -0.58   -0.36
#  17    7.41   -0.57    0.02   -3.05    0.05    0.00    0.00       3.86  -11.62    0.18
#  18   -6.45   -0.01    0.00    1.46    0.04    0.00    0.00      -4.95   17.53    0.46
#  19    0.35   -0.47    0.02   -0.02   -0.09    0.00    0.00      -0.22   -0.09   -0.34
#  20    1.24   -0.35    0.02   -0.80   -0.04    0.00    0.00       0.06   -4.17   -0.20
#  21    0.62   -0.47    0.04   -0.74   -0.05    0.00    0.00      -0.60   -3.00   -0.22
#  22    0.21   -0.28    0.01   -0.47   -0.04    0.00    0.00      -0.58   -2.40   -0.22
#  23   -0.17   -0.46    0.04    0.38   -0.11    0.00    0.00      -0.33    1.39   -0.42
#  24    0.80   -0.52    0.03   -1.97    0.51    0.00    0.00      -1.16   -9.05    2.33
#  25   -0.45   -0.98    0.20    1.21   -0.19    0.00    0.00      -0.21    4.19   -0.65
#  26    0.30   -1.09    0.09   -0.62    0.17    0.00    0.00      -1.15   -1.45    0.39
#  27    0.18   -1.85    1.68   -0.52   -0.12    0.00    0.00      -0.63   -1.92   -0.43
#  28    0.01   -1.71    1.10   -0.09   -0.11    0.00    0.00      -0.80   -0.33   -0.44
#  29    0.07   -2.13    2.27   -0.12   -0.11    0.00    0.00      -0.02   -0.44   -0.41
#  30    0.08   -2.03    1.04   -0.20   -0.13    0.00    0.00      -1.25   -0.67   -0.43
#  31    0.03   -1.15    0.17   -0.10   -0.08    0.00    0.00      -1.12   -0.34   -0.30
#  32    0.03   -1.60    0.27   -0.08   -0.23    0.00    0.00      -1.60   -0.32   -0.95
#  33    0.02   -1.09    0.20   -0.08   -0.08    0.00    0.00      -1.03   -0.29   -0.30
#  34    0.01   -2.81    2.20   -0.08   -0.28    0.00    0.00      -0.95   -0.26   -0.95
#  35    0.09   -1.04    0.17   -0.19   -0.12    0.00    0.00      -1.09   -0.71   -0.46
#  36    0.09   -1.28    0.66   -0.15   -0.11    0.00    0.00      -0.79   -0.64   -0.45
#  37    1.04   -0.71    0.05   -0.11   -0.15    0.00    0.00       0.12   -0.29   -0.39
#  38   -2.37   -1.10    0.15    0.80   -0.18    0.00    0.00      -2.69    1.81   -0.40
#  39   -0.20   -0.38    0.23    0.72   -0.06    0.00    0.00       0.31    3.55   -0.28
#  40   -0.09   -0.44    0.13    0.54   -0.08    0.00    0.00       0.06    1.85   -0.28
#  41   -2.59   -0.31    0.02    0.59   -0.07    0.00    0.00      -2.35    1.45   -0.17
#  42   -3.64   -0.44    0.06    1.21   -0.09    0.00    0.00      -2.89    2.74   -0.20
#  43   -3.94   -0.36    0.15    0.77   -0.07    0.00    0.00      -3.45    2.99   -0.28
#  44   -7.32   -1.35    3.00    1.76   -0.10    0.00    0.00      -4.01    4.87   -0.28
#  45   -2.81   -0.16    0.02    0.76   -0.04    0.00    0.00      -2.22    5.31   -0.25
#  46   -3.67   -0.42    0.09    1.00   -0.08    0.00    0.00      -3.07    2.95   -0.24
#  47   -3.10   -0.46    0.25    1.73   -0.05    0.00    0.00      -1.64    6.33   -0.20
#  48   -2.96   -0.18    0.02    0.99   -0.05    0.00    0.00      -2.18    5.10   -0.26
#  49   -2.52   -0.18    0.01    0.78   -0.06    0.00    0.00      -1.97    3.84   -0.28
#  50   -0.75   -0.15    0.03    0.53   -0.03    0.00    0.00      -0.37    3.87   -0.21
#  51   -0.43   -0.07    0.00    0.26   -0.02    0.00    0.00      -0.26    3.99   -0.28
#  52   -0.63   -0.29    0.14    0.25   -0.05    0.00    0.00      -0.59    1.40   -0.28
#  53   -0.69   -0.19    0.02    0.26   -0.06    0.00    0.00      -0.66    1.32   -0.28
#  54   -0.10   -0.09    0.00    0.20   -0.03    0.00    0.00      -0.01    2.17   -0.28
#  55   -0.12   -0.05    0.00    0.10   -0.01    0.00    0.00      -0.07    2.12   -0.28
#  56   -0.14   -0.20    0.04    0.07   -0.06    0.00    0.00      -0.29    0.33   -0.28
#  57   -0.07   -0.27    0.08    0.09   -0.07    0.00    0.00      -0.25    0.33   -0.28
#  58   -0.44    0.00    0.00    0.55    0.04    0.00    0.00       0.14    7.52    0.56
#  59   -0.10   -0.69    1.26    0.71   -0.05    0.00    0.00       1.12    2.76   -0.21
#  60   -0.17   -0.24    0.08    0.16   -0.05    0.00    0.00      -0.22    0.82   -0.26
#  61   -0.11   -1.00    2.34    0.75   -0.07    0.00    0.00       1.91    2.33   -0.21
#  62   -0.14   -0.20    0.03    0.25   -0.05    0.00    0.00      -0.12    1.32   -0.28
#  63   -0.21   -0.14    0.02    0.22   -0.03    0.00    0.00      -0.15    1.86   -0.28
#  64   -3.98   -0.33    0.05    0.83   -0.09    0.00    0.00      -3.51    2.54   -0.28
#  65   -3.35   -0.21    0.02    1.49   -0.06    0.00    0.00      -2.12    6.17   -0.26
#  66   -2.54   -0.44    0.10    2.41   -0.12    0.00    0.00      -0.59    5.70   -0.28
#  67   -4.32   -0.68    0.29    0.63   -0.08    0.00    0.00      -4.16    1.60   -0.21

@<TRIPOS>MOLECULE
          T537834        98
   67    69     0     0     0



@<TRIPOS>ATOM
      1 S1          3.7408    -8.2114    96.6321 S.3        1          -0.5063
      2 C1          4.7283    -6.9873    96.1013 C.cat      1           0.5115
      3 N1          6.0855    -7.1578    96.0945 N.pl3      1          -0.6317
      4 H1          6.6669    -6.4117    95.8793 H          1           0.4090
      5 C2          6.6352    -8.4084    96.3978 C.ar       1           0.1343
      6 C3          6.3227    -9.5136    95.6165 C.ar       1          -0.1054
      7 C4          6.8661   -10.7469    95.9174 C.ar       1          -0.0851
      8 C5          7.7213   -10.8832    96.9967 C.ar       1          -0.0250
      9 Cl1         8.4022   -12.4353    97.3724 Cl         1          -0.0319
     10 C6          8.0352    -9.7833    97.7774 C.ar       1          -0.0210
     11 Cl2         9.1089    -9.9577    99.1303 Cl         1          -0.0312
     12 C7          7.4982    -8.5455    97.4766 C.ar       1          -0.0643
     13 N2          4.1851    -5.8112    95.6658 N.pl3      1          -0.5925
     14 C8          4.8584    -4.9943    94.6195 C.3        1           0.0830
     15 C9          4.2365    -5.0506    93.2898 C.3        1          -0.1534
     16 C10         2.7375    -4.6903    93.4109 C.3        1          -0.0157
     17 N3          1.9369    -5.7616    93.9184 N.4        1          -0.3671
     18 H2          2.3835    -6.6318    93.6706 H          1           0.4175
     19 C11         0.6314    -5.7144    93.2467 C.3        1          -0.0201
     20 C12         0.7478    -6.3519    91.8606 C.3        1          -0.1474
     21 C13        -0.6120    -6.3029    91.1609 C.3        1          -0.1157
     22 C14        -0.4957    -6.9403    89.7749 C.3        1          -0.1323
     23 C15        -1.8553    -6.8912    89.0753 C.3        1           0.1174
     24 N4         -1.7440    -7.5016    87.7480 N.am       1          -0.7314
     25 C16        -1.4208    -6.7426    86.6821 C.2        1           0.5497
     26 O1         -1.2216    -5.5502    86.8222 O.2        1          -0.5373
     27 C17        -1.3097    -7.3526    85.3561 C.2        1          -0.2155
     28 C18        -0.1419    -7.2969    84.6841 C.2        1          -0.0084
     29 C19        -0.0300    -7.9102    83.3511 C.ar       1          -0.0652
     30 C20        -1.1805    -8.1739    82.6004 C.ar       1          -0.0829
     31 C21        -1.0679    -8.7484    81.3515 C.ar       1          -0.0344
     32 Cl3        -2.4937    -9.0765    80.4172 Cl         1          -0.0404
     33 C22         0.1822    -9.0642    80.8406 C.ar       1          -0.0205
     34 Cl4         0.3152    -9.7869    79.2679 Cl         1          -0.0365
     35 C23         1.3248    -8.8049    81.5790 C.ar       1          -0.0982
     36 C24         1.2272    -8.2265    82.8267 C.ar       1          -0.0749
     37 C25         1.6964    -5.7653    95.4006 C.3        1          -0.0434
     38 C26         2.9506    -5.3288    96.1950 C.3        1           0.0962
     39 H3          5.6549    -9.4084    94.7743 H          1           0.1423
     40 H4          6.6232   -11.6062    95.3099 H          1           0.1535
     41 H5          7.7462    -7.6869    98.0829 H          1           0.1563
     42 H6          4.8677    -3.9556    94.9495 H          1           0.0936
     43 H7          5.8896    -5.3355    94.5298 H          1           0.1014
     44 H8          4.7296    -4.3398    92.6267 H          1           0.1302
     45 H9          4.3376    -6.0565    92.8825 H          1           0.0975
     46 H10         2.6370    -3.8334    94.0770 H          1           0.1271
     47 H11         2.3645    -4.4123    92.4252 H          1           0.1431
     48 H12        -0.1017    -6.2627    93.8382 H          1           0.1370
     49 H13         0.3129    -4.6770    93.1438 H          1           0.1320
     50 H14         1.4809    -5.8037    91.2690 H          1           0.0869
     51 H15         1.0663    -7.3893    91.9634 H          1           0.0902
     52 H16        -1.3451    -6.8511    91.7526 H          1           0.0809
     53 H17        -0.9305    -5.2656    91.0582 H          1           0.0791
     54 H18         0.2375    -6.3920    89.1832 H          1           0.0738
     55 H19        -0.1771    -7.9776    89.8776 H          1           0.0751
     56 H20        -2.5885    -7.4394    89.6669 H          1           0.0708
     57 H21        -2.1738    -5.8538    88.9723 H          1           0.0703
     58 H22        -1.9027    -8.4520    87.6365 H          1           0.4024
     59 H23        -2.1629    -7.8471    84.9160 H          1           0.1313
     60 H24         0.7114    -6.8023    85.1244 H          1           0.1445
     61 H25        -2.1543    -7.9288    82.9978 H          1           0.1458
     62 H26         2.2951    -9.0530    81.1748 H          1           0.1506
     63 H27         2.1196    -8.0214    83.3993 H          1           0.1476
     64 H28         0.8774    -5.0830    95.6276 H          1           0.1366
     65 H29         1.4148    -6.7717    95.7105 H          1           0.1530
     66 H30         2.8487    -5.6879    97.2191 H          1           0.1078
     67 H31         2.9845    -4.2395    96.2155 H          1           0.1556
@<TRIPOS>BOND
     1    1    2 1
     2    2    3 2
     3    2   13 1
     4    3    4 1
     5    3    5 1
     6    5   12 ar
     7    5    6 ar
     8    6    7 ar
     9    6   39 1
    10    7    8 ar
    11    7   40 1
    12    8    9 1
    13    8   10 ar
    14   10   11 1
    15   10   12 ar
    16   12   41 1
    17   13   38 1
    18   13   14 1
    19   14   15 1
    20   14   42 1
    21   14   43 1
    22   15   16 1
    23   15   44 1
    24   15   45 1
    25   16   17 1
    26   16   46 1
    27   16   47 1
    28   17   18 1
    29   17   19 1
    30   17   37 1
    31   19   20 1
    32   19   48 1
    33   19   49 1
    34   20   21 1
    35   20   50 1
    36   20   51 1
    37   21   22 1
    38   21   52 1
    39   21   53 1
    40   22   23 1
    41   22   54 1
    42   22   55 1
    43   23   24 1
    44   23   56 1
    45   23   57 1
    46   24   25 am
    47   24   58 1
    48   25   26 2
    49   25   27 1
    50   27   28 2
    51   27   59 1
    52   28   29 1
    53   28   60 1
    54   29   36 ar
    55   29   30 ar
    56   30   31 ar
    57   30   61 1
    58   31   32 1
    59   31   33 ar
    60   33   34 1
    61   33   35 ar
    62   35   36 ar
    63   35   62 1
    64   36   63 1
    65   37   38 1
    66   37   64 1
    67   37   65 1
    68   38   66 1
    69   38   67 1
##########                 Name:              T529235
##########          Protonation:                   71
##########               SMILES:   Cc1c(c(nc([nH+]1)N)N)OCCCOc2ccc(cc2CC=C)Br
##########            Long Name:   5-[3-(2-allyl-4-bromo-phenoxy)propoxy]-6-methyl-pyrimidin-1-ium-2,4-diamine
##########          FlexRecCode: 1
##########               Number:                  297
##########   Ligand Source File: /raidb/db2/rgc/tcams/tcams-0000507.db2.gz
##########           GlobalRank: 356
##########                 Rank:                    1
##########               Setnum:                  366
##########             Matchnum:                 5198
##########                Cloud:                    1
##########        Electrostatic:           -40.967075
##########        Van der Waals:           -25.185627
##########  Ligand Polar Desolv:             5.487502
########## Ligand Apolar Desolv:            -3.965530
##########      Internal Energy:             0.000000
##########      Receptor Energy: 0.0
########## Receptor Desolvation:             0.000000
########## Receptor Hydrophobic:             0.000000
##########         Total Energy: -64.63
##########        Ligand Charge:             1.000000
##########            Arbitrary:    +999.9990
##########     heavy atom count:   24
##########           pose count:    1
##########        Ligand Energy:             0.000000
# num electro vdwattr vdwrepu polsolv apolsol rdesolv rhydroe totalscore fullpol fullapo
#   1    3.57   -1.44    0.29   -1.81   -0.10    0.00    0.00       0.52   -3.67   -0.20
#   2   -5.63   -1.31    0.14    2.56   -0.30    0.00    0.00      -4.53    6.45   -0.75
#   3    1.46   -1.18    0.09   -0.79   -0.10    0.00    0.00      -0.51   -2.12   -0.26
#   4    9.58   -1.15    0.09   -2.53    0.32    0.00    0.00       6.31   -6.10    0.77
#   5   -1.43   -0.61    0.04    0.37   -0.04    0.00    0.00      -1.66    1.22   -0.12
#   6    3.42   -0.99    0.14   -0.79   -0.11    0.00    0.00       1.67   -1.88   -0.25
#   7   -1.21   -1.28    0.53    0.21   -0.03    0.00    0.00      -1.78    0.59   -0.09
#   8    3.63   -0.87    0.05   -1.22    0.29    0.00    0.00       1.87   -3.46    0.82
#   9   -1.41   -1.30    0.13    0.48   -0.11    0.00    0.00      -2.21    1.32   -0.31
#  10    1.38   -1.20    0.11   -0.67   -0.15    0.00    0.00      -0.51   -1.91   -0.42
#  11    0.42   -1.21    0.08   -0.24   -0.22    0.00    0.00      -1.17   -0.51   -0.46
#  12    1.09   -1.60    0.24   -0.42   -0.16    0.00    0.00      -0.85   -0.80   -0.30
#  13    0.11  -10.89   11.29   -0.20   -0.67    0.00    0.00      -0.36   -0.33   -1.09
#  14    0.61   -2.11    0.82   -0.20   -0.23    0.00    0.00      -1.10   -0.38   -0.44
#  15    1.31   -1.73    0.33   -0.42   -0.18    0.00    0.00      -0.69   -0.83   -0.36
#  16    0.81   -1.46    0.21   -0.15   -0.14    0.00    0.00      -0.73   -0.26   -0.24
#  17    2.47   -4.52    2.60   -0.56   -0.27    0.00    0.00      -0.28   -0.93   -0.44
#  18    2.87   -5.06    3.30   -0.76   -0.20    0.00    0.00       0.14   -1.28   -0.34
#  19  -14.24   -1.65    0.51    3.37   -0.74    0.00    0.00     -12.75    9.74   -2.13
#  20   32.32   -4.01    3.62   -5.99    0.36    0.00    0.00      26.30  -15.42    0.92
#  21   10.23   -1.65    0.58   -3.92    0.66    0.00    0.00       5.90  -12.35    2.07
#  22  -13.98   -1.03    0.08    5.16   -1.67    0.00    0.00     -11.45   15.24   -4.94
#  23   16.79   -1.11    0.11   -7.11    0.35    0.00    0.00       9.03  -19.27    0.95
#  24   14.65   -1.28    0.14   -5.40    0.38    0.00    0.00       8.49  -13.82    0.97
#  25  -14.62   -0.03    0.00    4.53    0.19    0.00    0.00      -9.94   14.18    0.58
#  26   -2.89   -0.50    0.17    1.34   -0.10    0.00    0.00      -1.98    3.70   -0.28
#  27   -3.53   -0.79    0.30    1.23   -0.14    0.00    0.00      -2.92    2.27   -0.26
#  28   -2.35   -0.37    0.07    1.52   -0.11    0.00    0.00      -1.25    3.69   -0.28
#  29   -1.19   -0.14    0.00    0.31   -0.04    0.00    0.00      -1.06    2.32   -0.28
#  30   -1.77   -0.15    0.01    0.24   -0.04    0.00    0.00      -1.71    1.78   -0.28
#  31   -3.68   -0.52    0.22    0.50   -0.12    0.00    0.00      -3.61    1.13   -0.28
#  32   -2.28   -0.46    0.27    0.46   -0.11    0.00    0.00      -2.11    1.22   -0.28
#  33   -1.35   -0.38    0.17    0.37   -0.06    0.00    0.00      -1.25    1.69   -0.26
#  34   -1.38   -1.13    1.67    0.56   -0.10    0.00    0.00      -0.37    1.58   -0.27
#  35   -0.66   -0.21    0.02    0.56   -0.04    0.00    0.00      -0.33    2.85   -0.22
#  36   -1.26   -0.23    0.01    0.41   -0.08    0.00    0.00      -1.16    1.40   -0.28
#  37   -2.45   -0.57    0.20    0.29   -0.13    0.00    0.00      -2.66    0.60   -0.28
#  38   -1.77   -0.58    0.10    0.28   -0.15    0.00    0.00      -2.12    0.49   -0.26
#  39   -1.49   -0.41    0.11    0.30   -0.11    0.00    0.00      -1.61    0.71   -0.26
#  40   -1.90   -2.00    3.89    0.51   -0.18    0.00    0.00       0.32    0.81   -0.28
#  41   -1.55   -1.96    2.99    0.44   -0.18    0.00    0.00      -0.27    0.67   -0.28
#  42   -1.56   -0.95    1.33    0.29   -0.13    0.00    0.00      -1.02    0.59   -0.27
#  43  -25.91   -0.13    0.02    3.27    0.20    0.00    0.00     -22.54    8.89    0.55
#  44  -16.91   -0.08    0.00    3.44    0.24    0.00    0.00     -13.31    8.47    0.59
#  45   -7.41   -0.02    0.00    2.24    0.12    0.00    0.00      -5.07   10.69    0.59
#  46  -11.85   -0.03    0.00    3.44    0.16    0.00    0.00      -8.27   12.70    0.59

@<TRIPOS>MOLECULE
          T529235        71
   46    47     0     0     0



@<TRIPOS>ATOM
      1 C1          2.4327    -5.3954    96.7909 C.3        1          -0.1415
      2 C2          2.1625    -5.1153    95.3349 C.ar       1           0.2241
      3 C3          3.2101    -4.8828    94.4604 C.ar       1          -0.0520
      4 O1          4.4994    -4.9026    94.8964 O.3        1          -0.2935
      5 C4          5.1801    -6.1583    94.8523 C.3        1           0.0545
      6 C5          6.6063    -5.9841    95.3779 C.3        1          -0.1209
      7 C6          7.3351    -7.3286    95.3305 C.3        1           0.0607
      8 O2          6.6400    -8.2759    96.1438 O.3        1          -0.3023
      9 C7          7.3844    -9.2523    96.7268 C.ar       1           0.1437
     10 C8          7.5971   -10.4528    96.0644 C.ar       1          -0.2016
     11 C9          8.3539   -11.4436    96.6587 C.ar       1          -0.0537
     12 C10         8.8997   -11.2399    97.9136 C.ar       1          -0.1214
     13 Br1         9.9353   -12.5984    98.7248 Br         1          -0.0411
     14 C11         8.6892   -10.0437    98.5756 C.ar       1          -0.0470
     15 C12         7.9372    -9.0479    97.9824 C.ar       1          -0.0983
     16 C13         7.7130    -7.7427    98.7016 C.3        1          -0.0463
     17 C14         6.4671    -7.8407    99.5437 C.2        1          -0.1505
     18 C15         5.4651    -7.0247    99.3285 C.2        1          -0.1864
     19 C16         2.9117    -4.6275    93.1167 C.ar       1           0.5182
     20 N1          3.9278    -4.3891    92.2025 N.pl3      1          -0.7697
     21 N2          1.6405    -4.6171    92.7301 N.ar       1          -0.5662
     22 C17         0.6680    -4.8447    93.5999 C.ar       1           0.6660
     23 N3         -0.6472    -4.8263    93.1618 N.pl3      1          -0.7885
     24 N4          0.9187    -5.0942    94.8757 N.ar       1          -0.5641
     25 H1          0.1817    -5.2601    95.4840 H          1           0.4437
     26 H2          3.5072    -5.3700    96.9723 H          1           0.1170
     27 H3          1.9428    -4.6386    97.4035 H          1           0.1240
     28 H4          2.0437    -6.3801    97.0498 H          1           0.1049
     29 H5          4.6500    -6.8810    95.4725 H          1           0.0704
     30 H6          5.2132    -6.5175    93.8237 H          1           0.0660
     31 H7          7.1364    -5.2615    94.7575 H          1           0.0922
     32 H8          6.5731    -5.6248    96.4064 H          1           0.0939
     33 H9          7.3681    -7.6878    94.3019 H          1           0.0682
     34 H10         8.3512    -7.2046    95.7049 H          1           0.0677
     35 H11         7.1710   -10.6123    95.0849 H          1           0.1343
     36 H12         8.5194   -12.3784    96.1435 H          1           0.1369
     37 H13         9.1161    -9.8866    99.5551 H          1           0.1419
     38 H14         8.5686    -7.5291    99.3423 H          1           0.0802
     39 H15         7.5964    -6.9413    97.9721 H          1           0.0879
     40 H16         6.4002    -8.5837   100.3247 H          1           0.1072
     41 H17         4.5723    -7.0950    99.9320 H          1           0.0997
     42 H18         5.5319    -6.2816    98.5475 H          1           0.0987
     43 H19         4.8534    -4.3986    92.4927 H          1           0.4348
     44 H20         3.7128    -4.2128    91.2733 H          1           0.4303
     45 H21        -0.8452    -4.6483    92.2291 H          1           0.4463
     46 H22        -1.3694    -4.9913    93.7880 H          1           0.4317
@<TRIPOS>BOND
     1    1    2 1
     2    1   26 1
     3    1   27 1
     4    1   28 1
     5    2   24 ar
     6    2    3 ar
     7    3    4 1
     8    3   19 ar
     9    4    5 1
    10    5    6 1
    11    5   29 1
    12    5   30 1
    13    6    7 1
    14    6   31 1
    15    6   32 1
    16    7    8 1
    17    7   33 1
    18    7   34 1
    19    8    9 1
    20    9   15 ar
    21    9   10 ar
    22   10   11 ar
    23   10   35 1
    24   11   12 ar
    25   11   36 1
    26   12   13 1
    27   12   14 ar
    28   14   15 ar
    29   14   37 1
    30   15   16 1
    31   16   17 1
    32   16   38 1
    33   16   39 1
    34   17   18 2
    35   17   40 1
    36   18   41 1
    37   18   42 1
    38   19   20 1
    39   19   21 ar
    40   20   43 1
    41   20   44 1
    42   21   22 ar
    43   22   23 1
    44   22   24 ar
    45   23   45 1
    46   23   46 1
    47   24   25 1
##########                 Name:              T538156
##########          Protonation:                   77
##########               SMILES:   CCCCC[NH+]1CCC[C@H](C1)NS(=O)(=O)c2ccc(cc2)C(=O)Nc3ccc(cc3)C(F)(F)F
##########            Long Name:   pentylpiperidin-1-ium-3-yl]sulfamoyl]-N-[4-(trifluoromethyl)phenyl]benzamide
##########          FlexRecCode: 1
##########               Number:                   29
##########   Ligand Source File: /raidb/db2/rgc/tcams/tcams-0001737.db2.gz
##########           GlobalRank: 356
##########                 Rank:                    1
##########               Setnum:                   99
##########             Matchnum:                 5064
##########                Cloud:                    1
##########        Electrostatic:           -41.746059
##########        Van der Waals:           -27.635303
##########  Ligand Polar Desolv:             8.416989
########## Ligand Apolar Desolv:            -3.669451
##########      Internal Energy:             0.000000
##########      Receptor Energy: 0.0
########## Receptor Desolvation:             0.000000
########## Receptor Hydrophobic:             0.000000
##########         Total Energy: -64.63
##########        Ligand Charge:             1.000000
##########            Arbitrary:    +999.9990
##########     heavy atom count:   34
##########           pose count:    1
##########        Ligand Energy:             0.000000
# num electro vdwattr vdwrepu polsolv apolsol rdesolv rhydroe totalscore fullpol fullapo
#   1    3.79   -2.15    0.97   -1.34   -0.12    0.00    0.00       1.15   -2.16   -0.19
#   2    2.87   -1.58    0.28   -1.18   -0.14    0.00    0.00       0.26   -2.18   -0.25
#   3    2.19   -0.95    0.12   -1.06   -0.09    0.00    0.00       0.22   -2.59   -0.22
#   4    3.04   -0.69    0.05   -1.50   -0.08    0.00    0.00       0.83   -4.14   -0.21
#   5    0.21   -1.20    0.44    0.12   -0.12    0.00    0.00      -0.55    0.34   -0.35
#   6    8.91   -0.82    0.07   -3.88    0.08    0.00    0.00       4.35  -12.34    0.27
#   7   -7.97   -0.01    0.00    1.46    0.04    0.00    0.00      -6.48   15.19    0.43
#   8    0.39   -1.39    0.46   -0.05   -0.16    0.00    0.00      -0.74   -0.12   -0.37
#   9    3.63   -1.16    0.18   -1.85   -0.11    0.00    0.00       0.68   -4.13   -0.25
#  10    4.47   -1.03    0.15   -1.84   -0.10    0.00    0.00       1.64   -4.37   -0.24
#  11   -3.68   -0.62    0.05    0.94   -0.09    0.00    0.00      -3.39    3.04   -0.30
#  12    0.33   -0.88    0.13    0.05   -0.13    0.00    0.00      -0.49    0.16   -0.37
#  13   16.35   -0.68    0.05   -5.61    0.18    0.00    0.00      10.29  -26.71    0.88
#  14  -23.75   -1.03    0.16    8.04   -0.04    0.00    0.00     -16.61   45.24   -0.20
#  15   -5.86   -2.94    3.22   -2.96    0.35    0.00    0.00      -8.20  -12.63    1.48
#  16   11.11   -0.33    0.01   -2.03    0.23    0.00    0.00       8.99  -12.43    1.42
#  17   10.36   -0.49    0.03   -1.93   -0.04    0.00    0.00       7.92  -10.18   -0.23
#  18    0.74   -0.92    0.23   -0.08   -0.09    0.00    0.00      -0.11   -0.35   -0.40
#  19    1.94   -1.09    0.25   -0.30   -0.12    0.00    0.00       0.69   -1.21   -0.46
#  20    1.21   -1.00    0.26   -0.28   -0.09    0.00    0.00       0.11   -1.24   -0.41
#  21    1.28   -0.95    0.34   -0.28   -0.09    0.00    0.00       0.30   -1.43   -0.44
#  22    0.23   -0.59    0.05   -0.09   -0.09    0.00    0.00      -0.49   -0.42   -0.45
#  23   -7.28   -1.14    0.41    1.04   -0.14    0.00    0.00      -7.11    4.72   -0.64
#  24    3.61   -0.67    0.15   -0.36    0.05    0.00    0.00       2.79   -2.23    0.33
#  25   10.86   -1.31    0.30   -2.10    0.48    0.00    0.00       8.24   -7.12    1.64
#  26   -1.71   -0.86    0.07    0.44   -0.22    0.00    0.00      -2.27    1.38   -0.68
#  27    2.13   -1.15    0.12   -0.43   -0.17    0.00    0.00       0.51   -1.19   -0.46
#  28    0.57   -1.39    0.34   -0.15   -0.15    0.00    0.00      -0.78   -0.43   -0.44
#  29    0.38   -0.82    0.09   -0.25   -0.10    0.00    0.00      -0.70   -0.96   -0.38
#  30    0.01   -0.72    0.11   -0.08   -0.11    0.00    0.00      -0.79   -0.33   -0.44
#  31    0.42   -0.73    0.07   -0.21   -0.11    0.00    0.00      -0.56   -0.77   -0.40
#  32   -0.11   -0.46    0.05    0.25   -0.02    0.00    0.00      -0.28    1.14   -0.07
#  33    0.22   -0.54    0.07   -0.06   -0.15    0.00    0.00      -0.47   -0.19   -0.48
#  34   -0.09   -0.76    0.23   -0.07   -0.11    0.00    0.00      -0.80   -0.28   -0.45
#  35    0.05   -0.13    0.00   -0.05   -0.05    0.00    0.00      -0.18   -0.42   -0.45
#  36   -1.35   -1.59    2.22    0.30   -0.14    0.00    0.00      -0.56    0.58   -0.28
#  37   -1.38   -0.39    0.03    0.23   -0.12    0.00    0.00      -1.63    0.52   -0.28
#  38   -1.50   -0.78    0.66    0.05   -0.11    0.00    0.00      -1.69    0.12   -0.28
#  39   -1.50   -0.60    0.17    0.52   -0.14    0.00    0.00      -1.55    1.03   -0.28
#  40   -1.36   -0.97    0.64    0.44   -0.14    0.00    0.00      -1.38    0.91   -0.28
#  41   -1.67   -0.33    0.08    0.37   -0.08    0.00    0.00      -1.63    1.33   -0.28
#  42   -0.82   -0.34    0.10    0.41   -0.08    0.00    0.00      -0.73    1.51   -0.28
#  43   -2.30   -0.25    0.02    0.85   -0.06    0.00    0.00      -1.74    3.03   -0.21
#  44   -1.53   -0.16    0.01    0.40   -0.04    0.00    0.00      -1.31    2.70   -0.28
#  45   -1.50   -0.63    0.73    1.27   -0.07    0.00    0.00      -0.20    5.14   -0.28
#  46   -2.65   -0.76    0.67    2.09   -0.11    0.00    0.00      -0.76    5.37   -0.28
#  47   -3.75   -1.11    1.42    2.21   -0.12    0.00    0.00      -1.34    5.38   -0.28
#  48   -3.67   -0.45    0.18    1.76   -0.08    0.00    0.00      -2.25    4.95   -0.22
#  49   -3.19   -0.80    0.48    1.03   -0.13    0.00    0.00      -2.61    2.20   -0.28
#  50   -1.86   -0.21    0.01    0.64   -0.06    0.00    0.00      -1.48    2.72   -0.26
#  51   -3.37   -0.53    0.14    1.36   -0.12    0.00    0.00      -2.52    3.17   -0.28
#  52   -2.33   -0.30    0.05    0.25   -0.05    0.00    0.00      -2.38    1.02   -0.22
#  53   -5.37   -0.33    0.17    0.62   -0.05    0.00    0.00      -4.96    3.16   -0.26
#  54   -4.03   -0.22    0.03    1.20   -0.06    0.00    0.00      -3.09    5.57   -0.28
#  55   -5.86   -0.56    0.24    2.59   -0.11    0.00    0.00      -3.70    6.76   -0.28
#  56   -3.51   -0.01    0.00    2.05    0.09    0.00    0.00      -1.39   12.88    0.55
#  57   -4.81   -0.26    0.08    0.50   -0.05    0.00    0.00      -4.54    2.87   -0.27
#  58   -4.81   -0.31    0.08    0.26   -0.06    0.00    0.00      -4.83    1.13   -0.27
#  59   -1.29   -0.27    0.18    0.52   -0.03    0.00    0.00      -0.89    3.61   -0.22
#  60   -0.68   -0.18    0.03    0.48   -0.04    0.00    0.00      -0.38    3.50   -0.27
#  61   -9.92   -0.03    0.00    2.08    0.13    0.00    0.00      -7.73    7.18    0.46
#  62   -3.38   -0.31    0.04    0.92   -0.09    0.00    0.00      -2.82    2.80   -0.28
#  63   -3.09   -0.75    1.27    0.48   -0.09    0.00    0.00      -2.19    1.41   -0.27
#  64    0.21   -0.16    0.04    0.08   -0.04    0.00    0.00       0.14    0.60   -0.27
#  65   -0.37   -0.19    0.04    0.09   -0.04    0.00    0.00      -0.46    0.53   -0.22

@<TRIPOS>MOLECULE
          T538156        77
   65    67     0     0     0



@<TRIPOS>ATOM
      1 C1         -1.5586    -2.2516    93.9539 C.3        1          -0.1588
      2 C2         -1.1404    -2.5115    92.5053 C.3        1          -0.1253
      3 C3         -1.2140    -4.0119    92.2146 C.3        1          -0.1185
      4 C4         -0.2724    -4.7612    93.1595 C.3        1          -0.1502
      5 C5          1.1609    -4.2701    92.9465 C.3        1          -0.0117
      6 N1          2.0649    -4.9895    93.8538 N.4        1          -0.3854
      7 H1          1.7898    -5.9590    93.9018 H          1           0.4170
      8 C6          1.9878    -4.3938    95.1930 C.3        1          -0.0151
      9 C7          2.8659    -5.1898    96.1608 C.3        1          -0.1439
     10 C8          4.3159    -5.1587    95.6693 C.3        1          -0.1617
     11 C9          4.3732    -5.7140    94.2432 C.3        1           0.1277
     12 C10         3.4394    -4.8970    93.3473 C.3        1          -0.0109
     13 N2          3.9475    -7.1157    94.2466 N.pl3      1          -1.1250
     14 S1          3.9087    -7.9727    92.8300 S.o2       1           2.6918
     15 O1          3.6009    -9.3160    93.1763 O.2        1          -0.9347
     16 O2          3.1170    -7.2196    91.9214 O.2        1          -0.9341
     17 C11         5.5471    -7.9823    92.1819 C.ar       1          -0.6620
     18 C12         5.9562    -6.9731    91.3284 C.ar       1          -0.0282
     19 C13         7.2376    -6.9746    90.8175 C.ar       1          -0.0738
     20 C14         8.1223    -7.9975    91.1635 C.ar       1          -0.0699
     21 C15         7.7032    -9.0127    92.0250 C.ar       1          -0.1042
     22 C16         6.4208    -8.9961    92.5333 C.ar       1          -0.0217
     23 C17         9.4966    -8.0059    90.6194 C.2        1           0.5524
     24 O3         10.0927    -9.0574    90.4898 O.2        1          -0.4950
     25 N3         10.0889    -6.8476    90.2668 N.am       1          -0.6655
     26 C18        11.3890    -6.8556    89.7520 C.ar       1           0.1676
     27 C19        11.7868    -5.8764    88.8508 C.ar       1          -0.1413
     28 C20        13.0717    -5.8869    88.3446 C.ar       1          -0.0482
     29 C21        13.9618    -6.8710    88.7337 C.ar       1          -0.1912
     30 C22        13.5688    -7.8477    89.6304 C.ar       1          -0.0491
     31 C23        12.2873    -7.8392    90.1451 C.ar       1          -0.1212
     32 C24        15.3630    -6.8796    88.1789 C.3        1           0.5088
     33 F1         15.5229    -5.8035    87.2994 F          1          -0.1740
     34 F2         16.2808    -6.7645    89.2285 F          1          -0.1755
     35 F3         15.5860    -8.0790    87.4939 F          1          -0.1755
     36 H2         -1.5061    -1.1826    94.1609 H          1           0.0571
     37 H3         -2.5797    -2.6013    94.1056 H          1           0.0574
     38 H4         -0.8878    -2.7853    94.6271 H          1           0.0615
     39 H5         -1.8112    -1.9776    91.8322 H          1           0.0650
     40 H6         -0.1194    -2.1617    92.3535 H          1           0.0656
     41 H7         -2.2351    -4.3617    92.3662 H          1           0.0746
     42 H8         -0.9159    -4.1970    91.1826 H          1           0.0741
     43 H9         -0.5704    -4.5762    94.1916 H          1           0.0875
     44 H10        -0.3247    -5.8301    92.9523 H          1           0.0869
     45 H11         1.4589    -4.4551    91.9146 H          1           0.1335
     46 H12         1.2133    -3.2012    93.1537 H          1           0.1333
     47 H13         2.3365    -3.3618    95.1517 H          1           0.1340
     48 H14         0.9548    -4.4136    95.5401 H          1           0.1349
     49 H15         2.8088    -4.7447    97.1543 H          1           0.1164
     50 H16         2.5179    -6.2219    96.2031 H          1           0.0886
     51 H17         4.6811    -4.1317    95.6755 H          1           0.1020
     52 H18         4.9360    -5.7712    96.3240 H          1           0.1001
     53 H19         5.3934    -5.6435    93.8658 H          1           0.1415
     54 H20         3.4789    -5.2886    92.3309 H          1           0.1428
     55 H21         3.7563    -3.8540    93.3464 H          1           0.1482
     56 H22         3.6883    -7.5420    95.0784 H          1           0.4113
     57 H23         5.2706    -6.1825    91.0613 H          1           0.1515
     58 H24         7.5555    -6.1865    90.1511 H          1           0.1538
     59 H25         8.3826    -9.8072    92.2963 H          1           0.1409
     60 H26         6.0967    -9.7786    93.2035 H          1           0.1509
     61 H27         9.6133    -6.0086    90.3702 H          1           0.4146
     62 H28        11.0919    -5.1080    88.5459 H          1           0.1405
     63 H29        13.3816    -5.1258    87.6437 H          1           0.1447
     64 H30        14.2663    -8.6150    89.9321 H          1           0.1432
     65 H31        11.9824    -8.5998    90.8488 H          1           0.1504
@<TRIPOS>BOND
     1    1    2 1
     2    1   36 1
     3    1   37 1
     4    1   38 1
     5    2    3 1
     6    2   39 1
     7    2   40 1
     8    3    4 1
     9    3   41 1
    10    3   42 1
    11    4    5 1
    12    4   43 1
    13    4   44 1
    14    5    6 1
    15    5   45 1
    16    5   46 1
    17    6    7 1
    18    6   12 1
    19    6    8 1
    20    8    9 1
    21    8   47 1
    22    8   48 1
    23    9   10 1
    24    9   49 1
    25    9   50 1
    26   10   11 1
    27   10   51 1
    28   10   52 1
    29   11   12 1
    30   11   13 1
    31   11   53 1
    32   12   54 1
    33   12   55 1
    34   13   14 1
    35   13   56 1
    36   14   15 2
    37   14   16 2
    38   14   17 1
    39   17   22 ar
    40   17   18 ar
    41   18   19 ar
    42   18   57 1
    43   19   20 ar
    44   19   58 1
    45   20   21 ar
    46   20   23 1
    47   21   22 ar
    48   21   59 1
    49   22   60 1
    50   23   24 2
    51   23   25 am
    52   25   26 1
    53   25   61 1
    54   26   31 ar
    55   26   27 ar
    56   27   28 ar
    57   27   62 1
    58   28   29 ar
    59   28   63 1
    60   29   30 ar
    61   29   32 1
    62   30   31 ar
    63   30   64 1
    64   31   65 1
    65   32   33 1
    66   32   34 1
    67   32   35 1
##########                 Name:              T542760
##########          Protonation:                   99
##########               SMILES:   c1ccc(cc1)c2ccc(cc2)CC[NH2+]CCCCCC[NH2+]CCc3ccc(c(c3)O)O
##########            Long Name:   (3,4-dihydroxyphenyl)ethyl-[6-[2-(4-phenylphenyl)ethylammonio]hexyl]ammonium
##########          FlexRecCode: 1
##########               Number:                  252
##########   Ligand Source File: /raidb/db2/rgc/tcams/tcams-0002307.db2.gz
##########           GlobalRank: 356
##########                 Rank:                    1
##########               Setnum:                   72
##########             Matchnum:                  437
##########                Cloud:                    1
##########        Electrostatic:           -45.040184
##########        Van der Waals:           -24.560705
##########  Ligand Polar Desolv:             8.561203
########## Ligand Apolar Desolv:            -3.593963
##########      Internal Energy:             0.000000
##########      Receptor Energy: 0.0
########## Receptor Desolvation:             0.000000
########## Receptor Hydrophobic:             0.000000
##########         Total Energy: -64.63
##########        Ligand Charge:             2.000000
##########            Arbitrary:    +999.9990
##########     heavy atom count:   32
##########           pose count:    1
##########        Ligand Energy:             0.000000
# num electro vdwattr vdwrepu polsolv apolsol rdesolv rhydroe totalscore fullpol fullapo
#   1   -1.16   -1.95    1.55   -1.88    0.28    0.00    0.00      -3.16   -5.40    0.81
#   2    0.07   -1.16    0.44   -0.07   -0.07    0.00    0.00      -0.80   -0.31   -0.31
#   3    0.27   -1.01    0.34   -0.61   -0.10    0.00    0.00      -1.10   -2.93   -0.46
#   4    0.29   -0.36    0.02   -0.31   -0.06    0.00    0.00      -0.43   -2.31   -0.45
#   5    0.15   -0.18    0.00   -0.09   -0.03    0.00    0.00      -0.15   -1.21   -0.36
#   6    0.08   -0.06    0.00   -0.14   -0.01    0.00    0.00      -0.12   -3.78   -0.25
#   7    0.01   -0.06    0.00    0.04   -0.02    0.00    0.00      -0.02    1.01   -0.40
#   8    1.96   -0.08    0.00   -0.97    0.03    0.00    0.00       0.94  -21.68    0.73
#   9   -1.16    0.00    0.00    0.49    0.01    0.00    0.00      -0.66   21.62    0.57
#  10   -2.32    0.00    0.00    0.64    0.02    0.00    0.00      -1.67   21.85    0.57
#  11    0.06   -0.09    0.00    0.02   -0.02    0.00    0.00      -0.03    0.40   -0.40
#  12    1.25   -0.10    0.00   -0.38   -0.01    0.00    0.00       0.75   -6.15   -0.24
#  13    1.07   -0.17    0.00   -0.55   -0.02    0.00    0.00       0.33   -5.01   -0.22
#  14    1.44   -0.27    0.01   -0.84   -0.04    0.00    0.00       0.30   -5.00   -0.22
#  15    3.92   -0.61    0.12   -1.35   -0.05    0.00    0.00       2.03   -6.12   -0.24
#  16    0.28   -0.70    0.14    0.10   -0.10    0.00    0.00      -0.28    0.41   -0.40
#  17   20.13   -1.86    2.14   -6.23    0.21    0.00    0.00      14.39  -21.58    0.73
#  18  -13.29   -0.02    0.00    3.27    0.09    0.00    0.00      -9.95   21.58    0.57
#  19  -27.79   -0.27    0.23    6.90    0.18    0.00    0.00     -20.74   21.55    0.57
#  20    0.22   -0.79    0.09    0.40   -0.15    0.00    0.00      -0.23    1.09   -0.40
#  21    3.24   -1.26    0.22   -1.75   -0.12    0.00    0.00       0.33   -3.80   -0.25
#  22    2.96   -1.46    0.29   -0.61   -0.15    0.00    0.00       1.02   -1.44   -0.36
#  23    2.79   -1.62    0.27   -1.16   -0.19    0.00    0.00       0.10   -2.72   -0.45
#  24    2.15   -2.04    0.77   -1.00   -0.17    0.00    0.00      -0.30   -2.57   -0.44
#  25    0.18   -1.28    0.10   -0.69   -0.17    0.00    0.00      -1.85   -1.69   -0.41
#  26    1.29   -1.74    0.30   -1.14   -0.20    0.00    0.00      -1.48   -2.57   -0.44
#  27    1.76   -1.54    0.24   -1.10   -0.18    0.00    0.00      -0.81   -2.71   -0.45
#  28    0.81   -1.54    0.24   -0.27   -0.18    0.00    0.00      -0.95   -0.63   -0.41
#  29    0.73   -1.45    0.21   -0.56   -0.17    0.00    0.00      -1.24   -1.45   -0.44
#  30    0.87   -1.55    0.23   -0.67   -0.24    0.00    0.00      -1.36   -1.31   -0.47
#  31    0.93   -2.10    0.61   -0.80   -0.26    0.00    0.00      -1.62   -1.44   -0.47
#  32    1.70   -2.66    1.23   -0.72   -0.26    0.00    0.00      -0.72   -1.31   -0.47
#  33    1.70   -2.09    0.50   -0.80   -0.24    0.00    0.00      -0.93   -1.45   -0.44
#  34    0.08   -0.20    0.01   -0.22   -0.04    0.00    0.00      -0.36   -2.77   -0.46
#  35    0.04   -0.44    0.03    0.02   -0.05    0.00    0.00      -0.40    0.11   -0.31
#  36   -0.56   -0.35    0.02   -1.15    0.13    0.00    0.00      -1.91   -6.86    0.80
#  37   -0.30   -0.07    0.01    1.85    0.43    0.00    0.00       1.92    5.20    1.22
#  38   -0.66   -0.27    0.12    0.31   -0.05    0.00    0.00      -0.56    1.66   -0.28
#  39   -0.56   -0.05    0.00    0.23   -0.01    0.00    0.00      -0.39    5.51   -0.28
#  40   -0.07   -0.01    0.00    0.09    0.00    0.00    0.00       0.00    4.84   -0.28
#  41   -0.07   -0.02    0.00    0.11   -0.01    0.00    0.00       0.01    5.33   -0.28
#  42   -0.21   -0.02    0.00    0.15   -0.01    0.00    0.00      -0.09    5.87   -0.28
#  43   -0.17   -0.02    0.00    0.12   -0.01    0.00    0.00      -0.08    5.32   -0.28
#  44   -0.98   -0.04    0.00    0.23   -0.01    0.00    0.00      -0.80    5.90   -0.28
#  45   -0.41   -0.02    0.00    0.16   -0.01    0.00    0.00      -0.28    5.65   -0.28
#  46   -0.42   -0.02    0.00    0.11   -0.01    0.00    0.00      -0.34    3.78   -0.28
#  47   -1.11   -0.04    0.00    0.17   -0.01    0.00    0.00      -1.00    3.91   -0.28
#  48   -1.00   -0.08    0.00    0.18   -0.02    0.00    0.00      -0.92    2.39   -0.28
#  49   -0.32   -0.04    0.00    0.09   -0.01    0.00    0.00      -0.28    2.30   -0.28
#  50   -0.64   -0.13    0.01    0.35   -0.04    0.00    0.00      -0.45    2.33   -0.28
#  51   -0.58   -0.04    0.00    0.10   -0.01    0.00    0.00      -0.53    2.38   -0.28
#  52   -1.86   -0.09    0.01    0.34   -0.02    0.00    0.00      -1.63    3.84   -0.28
#  53   -3.48   -0.51    0.35    0.89   -0.07    0.00    0.00      -2.82    3.79   -0.28
#  54   -3.95   -0.33    0.07    1.47   -0.07    0.00    0.00      -2.81    5.74   -0.28
#  55   -2.21   -0.08    0.00    0.45   -0.02    0.00    0.00      -1.86    5.78   -0.28
#  56   -4.55   -0.34    0.06    1.69   -0.09    0.00    0.00      -3.23    5.53   -0.28
#  57   -3.06   -0.12    0.00    0.57   -0.03    0.00    0.00      -2.64    5.55   -0.28
#  58   -3.95   -0.55    0.12    2.33   -0.14    0.00    0.00      -2.17    4.81   -0.28
#  59   -2.86   -0.63    0.23    1.84   -0.11    0.00    0.00      -1.52    4.80   -0.28
#  60   -4.77   -0.52    0.20    2.15   -0.12    0.00    0.00      -3.06    4.87   -0.28
#  61   -2.57   -1.55    3.70    0.60   -0.08    0.00    0.00       0.09    1.66   -0.22
#  62   -1.04   -0.90    1.04    0.71   -0.09    0.00    0.00      -0.29    1.67   -0.22
#  63   -2.28   -0.33    0.04    1.75   -0.10    0.00    0.00      -0.92    4.88   -0.28
#  64   -0.50   -0.25    0.02    0.45   -0.05    0.00    0.00      -0.33    1.90   -0.22
#  65   -1.00   -0.27    0.02    0.55   -0.11    0.00    0.00      -0.82    1.43   -0.28
#  66   -0.72   -0.51    0.13    0.62   -0.15    0.00    0.00      -0.63    1.17   -0.28
#  67   -2.31   -0.95    1.24    0.79   -0.15    0.00    0.00      -1.39    1.43   -0.28
#  68   -2.59   -0.46    0.06    1.02   -0.12    0.00    0.00      -2.08    1.90   -0.22
#  69   -0.08   -0.02    0.00    0.11   -0.01    0.00    0.00       0.00    4.51   -0.28
#  70    0.10    0.00    0.00    0.23    0.05    0.00    0.00       0.37    6.15    1.22

@<TRIPOS>MOLECULE
          T542760        99
   70    72     0     0     0



@<TRIPOS>ATOM
      1 O1         12.4083   -10.5424    92.7940 O.3        1          -0.4887
      2 C1         11.7241   -10.9271    91.6835 C.ar       1           0.1033
      3 C2         10.4239   -11.3928    91.7958 C.ar       1          -0.1269
      4 C3          9.7296   -11.7829    90.6658 C.ar       1          -0.1009
      5 C4         10.3295   -11.7102    89.4226 C.ar       1          -0.1067
      6 C5          9.5682   -12.1373    88.1941 C.3        1          -0.0983
      7 C6          8.8145   -10.9369    87.6182 C.3        1          -0.0075
      8 N1          7.8742   -10.4213    88.6224 N.4        1          -0.5105
      9 H1          7.2159   -11.1449    88.8694 H          1           0.4293
     10 H2          8.3840   -10.1353    89.4449 H          1           0.4293
     11 C7          7.1504    -9.2688    88.0694 C.3        1          -0.0101
     12 C8          6.1712    -8.7320    89.1153 C.3        1          -0.1518
     13 C9          5.4173    -7.5316    88.5393 C.3        1          -0.1195
     14 C10         4.4381    -6.9948    89.5852 C.3        1          -0.1194
     15 C11         5.2112    -6.5609    90.8323 C.3        1          -0.1518
     16 C12         4.2320    -6.0242    91.8782 C.3        1          -0.0100
     17 N2          4.9741    -5.6076    93.0756 N.4        1          -0.5107
     18 H3          5.4713    -6.3993    93.4553 H          1           0.4289
     19 H4          5.6325    -4.8841    92.8284 H          1           0.4290
     20 C13         4.0342    -5.0920    94.0798 C.3        1          -0.0069
     21 C14         4.8071    -4.6583    95.3268 C.3        1          -0.0984
     22 C15         5.5496    -5.8406    95.8942 C.ar       1          -0.1186
     23 C16         6.8384    -6.1122    95.4715 C.ar       1          -0.1028
     24 C17         7.5232    -7.1937    95.9878 C.ar       1          -0.1107
     25 C18         6.9138    -8.0125    96.9364 C.ar       1          -0.0132
     26 C19         5.6155    -7.7341    97.3585 C.ar       1          -0.1106
     27 C20         4.9421    -6.6468    96.8397 C.ar       1          -0.1027
     28 C21         7.6449    -9.1768    97.4947 C.ar       1          -0.0705
     29 C22         7.5577   -10.4208    96.8731 C.ar       1          -0.1048
     30 C23         8.2402   -11.5003    97.3964 C.ar       1          -0.1166
     31 C24         9.0093   -11.3490    98.5361 C.ar       1          -0.1049
     32 C25         9.0990   -10.1165    99.1576 C.ar       1          -0.1166
     33 C26         8.4257    -9.0289    98.6393 C.ar       1          -0.1048
     34 C27        11.6263   -11.2461    89.3035 C.ar       1          -0.1226
     35 C28        12.3260   -10.8484    90.4314 C.ar       1           0.0892
     36 O2         13.6000   -10.3868    90.3156 O.3        1          -0.4909
     37 H5         11.9072   -10.6335    93.6161 H          1           0.4024
     38 H6          9.9531   -11.4512    92.7659 H          1           0.1422
     39 H7          8.7161   -12.1458    90.7546 H          1           0.1323
     40 H8         10.2658   -12.5197    87.4490 H          1           0.0975
     41 H9          8.8569   -12.9189    88.4609 H          1           0.0989
     42 H10         9.5257   -10.1551    87.3515 H          1           0.1349
     43 H11         8.2638   -11.2457    86.7297 H          1           0.1344
     44 H12         7.8617    -8.4871    87.8025 H          1           0.1327
     45 H13         6.5999    -9.5778    87.1810 H          1           0.1326
     46 H14         5.4601    -9.5137    89.3821 H          1           0.0900
     47 H15         6.7219    -8.4230    90.0038 H          1           0.0901
     48 H16         6.1285    -6.7500    88.2723 H          1           0.0790
     49 H17         4.8666    -7.8406    87.6509 H          1           0.0790
     50 H18         3.9009    -6.1397    89.1749 H          1           0.0789
     51 H19         3.7270    -7.7765    89.8522 H          1           0.0789
     52 H20         5.7483    -7.4161    91.2426 H          1           0.0899
     53 H21         5.9223    -5.7793    90.5653 H          1           0.0900
     54 H22         3.6948    -5.1690    91.4679 H          1           0.1323
     55 H23         3.5210    -6.8059    92.1451 H          1           0.1323
     56 H24         3.4970    -4.2369    93.6695 H          1           0.1338
     57 H25         3.3230    -5.8738    94.3466 H          1           0.1338
     58 H26         5.5183    -3.8767    95.0598 H          1           0.0954
     59 H27         4.1096    -4.2757    96.0718 H          1           0.0955
     60 H28         7.3095    -5.4771    94.7360 H          1           0.1256
     61 H29         8.5292    -7.4051    95.6569 H          1           0.1328
     62 H30         5.1384    -8.3658    98.0932 H          1           0.1328
     63 H31         3.9374    -6.4274    97.1697 H          1           0.1256
     64 H32         6.9570   -10.5401    95.9836 H          1           0.1251
     65 H33         8.1734   -12.4649    96.9154 H          1           0.1295
     66 H34         9.5414   -12.1965    98.9425 H          1           0.1292
     67 H35         9.7006   -10.0041   100.0475 H          1           0.1295
     68 H36         8.4999    -8.0660    99.1228 H          1           0.1251
     69 H37        12.0927   -11.1898    88.3310 H          1           0.1350
     70 H38        13.9309   -10.3692    89.4071 H          1           0.4024
@<TRIPOS>BOND
     1    1    2 1
     2    1   37 1
     3    2   35 ar
     4    2    3 ar
     5    3    4 ar
     6    3   38 1
     7    4    5 ar
     8    4   39 1
     9    5    6 1
    10    5   34 ar
    11    6    7 1
    12    6   40 1
    13    6   41 1
    14    7    8 1
    15    7   42 1
    16    7   43 1
    17    8    9 1
    18    8   10 1
    19    8   11 1
    20   11   12 1
    21   11   44 1
    22   11   45 1
    23   12   13 1
    24   12   46 1
    25   12   47 1
    26   13   14 1
    27   13   48 1
    28   13   49 1
    29   14   15 1
    30   14   50 1
    31   14   51 1
    32   15   16 1
    33   15   52 1
    34   15   53 1
    35   16   17 1
    36   16   54 1
    37   16   55 1
    38   17   18 1
    39   17   19 1
    40   17   20 1
    41   20   21 1
    42   20   56 1
    43   20   57 1
    44   21   22 1
    45   21   58 1
    46   21   59 1
    47   22   27 ar
    48   22   23 ar
    49   23   24 ar
    50   23   60 1
    51   24   25 ar
    52   24   61 1
    53   25   26 ar
    54   25   28 1
    55   26   27 ar
    56   26   62 1
    57   27   63 1
    58   28   33 ar
    59   28   29 ar
    60   29   30 ar
    61   29   64 1
    62   30   31 ar
    63   30   65 1
    64   31   32 ar
    65   31   66 1
    66   32   33 ar
    67   32   67 1
    68   33   68 1
    69   34   35 ar
    70   34   69 1
    71   35   36 1
    72   36   70 1
##########                 Name:              T540579
##########          Protonation:                   61
##########               SMILES:   c1ccc2c(c1)cc/c(=[NH+]\CCCNC(=O)c3cc4c([nH]3)cc(cc4Cl)Cl)/[nH]2
##########            Long Name:   6-dichloro-1H-indole-2-carbonyl)amino]propyl-(1H-quinolin-2-ylidene)ammonium
##########          FlexRecCode: 1
##########               Number:                  239
##########   Ligand Source File: /raidb/db2/rgc/tcams/tcams-0001994.db2.gz
##########           GlobalRank: 357
##########                 Rank:                    1
##########               Setnum:                    8
##########             Matchnum:                 1398
##########                Cloud:                    1
##########        Electrostatic:           -41.112892
##########        Van der Waals:           -26.761013
##########  Ligand Polar Desolv:             6.298769
########## Ligand Apolar Desolv:            -3.040740
##########      Internal Energy:             0.000000
##########      Receptor Energy: 0.0
########## Receptor Desolvation:             0.000000
########## Receptor Hydrophobic:             0.000000
##########         Total Energy: -64.62
##########        Ligand Charge:             1.000000
##########            Arbitrary:    +999.9990
##########     heavy atom count:   28
##########           pose count:    1
##########        Ligand Energy:             0.000000
# num electro vdwattr vdwrepu polsolv apolsol rdesolv rhydroe totalscore fullpol fullapo
#   1    0.12  -10.13   10.38   -0.22   -0.64    0.00    0.00      -0.50   -0.34   -0.98
#   2   -0.09   -2.69    1.52   -0.09   -0.16    0.00    0.00      -1.52   -0.16   -0.29
#   3    1.84   -3.12    2.38   -0.35   -0.25    0.00    0.00       0.51   -0.63   -0.45
#   4   -0.55   -1.97    0.48   -0.03   -0.15    0.00    0.00      -2.22   -0.05   -0.29
#   5    0.83   -5.37    1.55   -0.14   -0.60    0.00    0.00      -3.74   -0.23   -0.99
#   6    1.22   -1.41    0.18   -0.30   -0.17    0.00    0.00      -0.48   -0.74   -0.43
#   7    0.91   -1.29    0.19   -0.32   -0.17    0.00    0.00      -0.67   -0.91   -0.48
#   8   -0.07   -1.17    0.17    0.15   -0.23    0.00    0.00      -1.14    0.50   -0.75
#   9    2.65   -1.28    0.14   -2.32    0.39    0.00    0.00      -0.42   -6.72    1.13
#  10   -0.96   -1.34    0.15    0.47   -0.32    0.00    0.00      -2.00    1.15   -0.78
#  11    0.88   -1.75    0.30   -0.44   -0.25    0.00    0.00      -1.26   -0.79   -0.46
#  12   -4.60   -0.96    0.15    1.52   -0.16    0.00    0.00      -4.05    6.15   -0.65
#  13    1.78   -0.98    0.24   -0.67    0.09    0.00    0.00       0.47   -3.12    0.41
#  14   12.40   -0.74    0.05   -3.01    0.58    0.00    0.00       9.29  -12.00    2.33
#  15   -2.52   -0.40    0.03    0.43   -0.09    0.00    0.00      -2.54    2.09   -0.42
#  16    3.19   -0.39    0.02   -0.71   -0.05    0.00    0.00       2.07   -3.52   -0.24
#  17   -1.62   -0.42    0.03    0.52   -0.08    0.00    0.00      -1.58    2.36   -0.38
#  18   19.30   -2.05    0.88   -5.31    0.50    0.00    0.00      13.33  -16.72    1.59
#  19  -22.32   -0.11    0.02    5.29    0.22    0.00    0.00     -16.91   13.93    0.57
#  20  -11.34   -1.34    0.30    4.19   -0.58    0.00    0.00      -8.77   14.80   -2.06
#  21   18.91   -3.73    4.51   -5.36    0.37    0.00    0.00      14.69  -15.23    1.04
#  22   -3.36   -1.30    0.32    0.94   -0.20    0.00    0.00      -3.61    3.25   -0.69
#  23    4.22   -1.68    0.38   -1.07   -0.18    0.00    0.00       1.67   -2.79   -0.46
#  24    1.14   -1.09    0.10   -0.59   -0.17    0.00    0.00      -0.61   -1.63   -0.47
#  25    1.76   -0.97    0.24   -0.63   -0.11    0.00    0.00       0.29   -2.59   -0.47
#  26    0.40   -0.57    0.09   -0.21   -0.07    0.00    0.00      -0.37   -1.33   -0.46
#  27    1.38   -0.45    0.02   -0.48   -0.07    0.00    0.00       0.39   -2.78   -0.40
#  28   -0.37   -0.26    0.01    0.03   -0.05    0.00    0.00      -0.64    0.26   -0.46
#  29    1.76   -0.38    0.01   -0.80   -0.07    0.00    0.00       0.54   -5.07   -0.42
#  30   -3.11   -1.00    0.91    0.37   -0.16    0.00    0.00      -2.99    0.66   -0.28
#  31   -2.70   -0.24    0.02    0.08   -0.06    0.00    0.00      -2.89    0.39   -0.28
#  32   -1.60   -0.02    0.00    2.12    0.13    0.00    0.00       0.63    8.53    0.54
#  33   -1.15   -0.34    0.03    1.17   -0.13    0.00    0.00      -0.42    2.52   -0.28
#  34   -8.85   -0.01    0.00    1.44    0.08    0.00    0.00      -7.35    9.25    0.50
#  35   -2.53   -0.23    0.07    0.23   -0.05    0.00    0.00      -2.51    1.37   -0.28
#  36   -1.00   -0.07    0.00    0.08   -0.02    0.00    0.00      -1.00    1.29   -0.28
#  37   -1.05   -0.10    0.00    0.27   -0.02    0.00    0.00      -0.90    3.02   -0.28
#  38   -2.71   -0.17    0.02    0.50   -0.04    0.00    0.00      -2.40    3.22   -0.28
#  39   -1.19   -0.06    0.00    0.23   -0.01    0.00    0.00      -1.03    4.32   -0.26
#  40   -1.81   -0.15    0.01    0.56   -0.04    0.00    0.00      -1.42    3.90   -0.28
#  41  -25.80   -0.36    0.37    5.60    0.27    0.00    0.00     -19.92   12.41    0.59
#  42   -6.17   -0.73    0.36    1.45   -0.12    0.00    0.00      -5.19    3.40   -0.28
#  43   -4.76   -0.35    0.07    0.65   -0.09    0.00    0.00      -4.47    2.06   -0.28
#  44   -1.49   -0.24    0.08    0.35   -0.06    0.00    0.00      -1.36    1.76   -0.28
#  45   -0.55   -0.09    0.01    0.24   -0.02    0.00    0.00      -0.41    2.96   -0.28
#  46   -0.59   -0.03    0.00    0.15   -0.01    0.00    0.00      -0.47    4.68   -0.28
#  47   -0.96   -0.04    0.00    0.29   -0.01    0.00    0.00      -0.73    6.76   -0.25

@<TRIPOS>MOLECULE
          T540579        61
   47    50     0     0     0



@<TRIPOS>ATOM
      1 Cl1         9.3954   -12.7931    99.8962 Cl         1          -0.0412
      2 C1          8.8014   -11.5405    98.8513 C.ar       1           0.0112
      3 C2          8.8532   -10.2149    99.2672 C.ar       1          -0.1283
      4 C3          8.3908    -9.2151    98.4606 C.ar       1           0.0369
      5 Cl2         8.4617    -7.5642    98.9928 Cl         1          -0.0405
      6 C4          7.8587    -9.5253    97.2006 C.ar       1          -0.1161
      7 C5          7.3119    -8.7409    96.1572 C.2        1          -0.0789
      8 C6          6.9482    -9.5823    95.1537 C.2        1           0.0091
      9 N1          7.2453   -10.8811    95.5220 N.pl3      1          -0.5738
     10 C7          7.8059   -10.8677    96.7774 C.ar       1           0.1400
     11 C8          8.2881   -11.8692    97.6152 C.ar       1          -0.1211
     12 C9          6.3364    -9.1760    93.8805 C.2        1           0.5914
     13 O1          6.0493   -10.0157    93.0484 O.2        1          -0.5050
     14 N2          6.0936    -7.8733    93.6350 N.am       1          -0.7348
     15 C10         5.4837    -7.4684    92.3659 C.3        1           0.1240
     16 C11         4.1596    -6.7534    92.6417 C.3        1          -0.1539
     17 C12         3.5226    -6.3305    91.3163 C.3        1           0.0879
     18 N3          4.4285    -5.4241    90.6064 N.pl3      1          -0.6109
     19 H1          4.6954    -4.5862    91.0159 H          1           0.4284
     20 C13         4.8787    -5.7455    89.4169 C.cat      1           0.5447
     21 N4          5.7418    -4.9093    88.7247 N.pl3      1          -0.6219
     22 C14         6.7507    -5.5101    87.9846 C.ar       1           0.1634
     23 C15         7.9262    -4.8334    87.6923 C.ar       1          -0.1417
     24 C16         8.9113    -5.4578    86.9550 C.ar       1          -0.0460
     25 C17         8.7367    -6.7579    86.5029 C.ar       1          -0.1215
     26 C18         7.5773    -7.4460    86.7821 C.ar       1          -0.0463
     27 C19         6.5688    -6.8283    87.5281 C.ar       1          -0.1341
     28 C20         5.3222    -7.5361    87.8411 C.2        1           0.0605
     29 C21         4.4915    -7.0089    88.7708 C.2        1          -0.2283
     30 H2          9.2626    -9.9739   100.2372 H          1           0.1513
     31 H3          7.2027    -7.6665    96.1583 H          1           0.1652
     32 H4          7.0841   -11.6717    94.9837 H          1           0.4197
     33 H5          8.2566   -12.9014    97.2992 H          1           0.1424
     34 H6          6.3224    -7.2038    94.2985 H          1           0.3983
     35 H7          6.1578    -6.7940    91.8378 H          1           0.0829
     36 H8          5.2993    -8.3511    91.7534 H          1           0.0833
     37 H9          3.4855    -7.4278    93.1698 H          1           0.0909
     38 H10         4.3438    -5.8708    93.2541 H          1           0.0900
     39 H11         3.3383    -7.2132    90.7039 H          1           0.1135
     40 H12         2.5792    -5.8211    91.5128 H          1           0.1172
     41 H13         5.6444    -3.9446    88.7562 H          1           0.4411
     42 H14         8.0694    -3.8212    88.0405 H          1           0.1450
     43 H15         9.8257    -4.9299    86.7276 H          1           0.1487
     44 H16         9.5166    -7.2338    85.9270 H          1           0.1471
     45 H17         7.4475    -8.4576    86.4267 H          1           0.1514
     46 H18         5.0744    -8.4612    87.3418 H          1           0.1742
     47 H19         3.5662    -7.5027    89.0282 H          1           0.1846
@<TRIPOS>BOND
     1    1    2 1
     2    2   11 ar
     3    2    3 ar
     4    3    4 ar
     5    3   30 1
     6    4    5 1
     7    4    6 ar
     8    6   10 ar
     9    6    7 1
    10    7    8 2
    11    7   31 1
    12    8    9 1
    13    8   12 1
    14    9   10 1
    15    9   32 1
    16   10   11 ar
    17   11   33 1
    18   12   13 2
    19   12   14 am
    20   14   15 1
    21   14   34 1
    22   15   16 1
    23   15   35 1
    24   15   36 1
    25   16   17 1
    26   16   37 1
    27   16   38 1
    28   17   18 1
    29   17   39 1
    30   17   40 1
    31   18   19 1
    32   18   20 2
    33   20   29 1
    34   20   21 1
    35   21   22 1
    36   21   41 1
    37   22   27 ar
    38   22   23 ar
    39   23   24 ar
    40   23   42 1
    41   24   25 ar
    42   24   43 1
    43   25   26 ar
    44   25   44 1
    45   26   27 ar
    46   26   45 1
    47   27   28 1
    48   28   29 2
    49   28   46 1
    50   29   47 1
##########                 Name:              T537294
##########          Protonation:                   27
##########               SMILES:   [H]/N=C/1\[NH+]=C(NC(N1OCCCOc2cc(c(cc2Cl)Cl)Cl)(C)C)N
##########            Long Name:   imethyl-5-[3-(2,4,5-trichlorophenoxy)propoxy]-1H-1,3,5-triazin-3-ium-2-amine
##########          FlexRecCode: 1
##########               Number:                  203
##########   Ligand Source File: /raidb/db2/rgc/tcams/tcams-0001610.db2.gz
##########           GlobalRank: 358
##########                 Rank:                    1
##########               Setnum:                  164
##########             Matchnum:                  229
##########                Cloud:                    1
##########        Electrostatic:           -35.142395
##########        Van der Waals:           -32.135765
##########  Ligand Polar Desolv:             6.306840
########## Ligand Apolar Desolv:            -3.635365
##########      Internal Energy:             0.000000
##########      Receptor Energy: 0.0
########## Receptor Desolvation:             0.000000
########## Receptor Hydrophobic:             0.000000
##########         Total Energy: -64.61
##########        Ligand Charge:             1.000000
##########            Arbitrary:    +999.9990
##########     heavy atom count:   24
##########           pose count:    1
##########        Ligand Energy:             0.000000
# num electro vdwattr vdwrepu polsolv apolsol rdesolv rhydroe totalscore fullpol fullapo
#   1    4.49   -0.68    0.09   -1.04   -0.04    0.00    0.00       2.83   -3.96   -0.16
#   2   -6.85   -0.36    0.01    1.98   -0.08    0.00    0.00      -5.31    9.48   -0.38
#   3    1.25   -0.28    0.01   -0.58   -0.03    0.00    0.00       0.38   -3.68   -0.18
#   4   13.05   -0.80    0.05   -5.27    0.42    0.00    0.00       7.44  -18.95    1.50
#   5  -17.82   -1.01    0.09    7.15   -1.57    0.00    0.00     -13.16   21.46   -4.71
#   6   21.98   -1.63    0.32   -9.48    0.38    0.00    0.00      11.57  -23.47    0.94
#   7   16.45   -1.39    0.34   -6.60    0.43    0.00    0.00       9.22  -15.74    1.02
#   8  -17.16   -0.07    0.01    4.83    0.20    0.00    0.00     -12.19   13.53    0.57
#   9  -10.42   -0.97    0.06    4.45   -1.72    0.00    0.00      -8.60   11.92   -4.61
#  10    8.03   -1.87    0.39   -5.41    0.67    0.00    0.00       1.81  -11.80    1.46
#  11    8.30   -0.64    0.02   -2.16    0.20    0.00    0.00       5.73   -9.29    0.88
#  12    1.33   -0.57    0.02   -0.50    0.11    0.00    0.00       0.39   -2.01    0.43
#  13   -0.48   -0.80    0.08    0.25   -0.04    0.00    0.00      -1.00    0.68   -0.12
#  14    3.54   -1.13    0.20   -0.67   -0.11    0.00    0.00       1.82   -1.48   -0.25
#  15   -1.33   -1.03    0.21    0.23   -0.04    0.00    0.00      -1.96    0.59   -0.09
#  16    4.61   -1.09    0.09   -1.26    0.36    0.00    0.00       2.70   -2.95    0.84
#  17   -1.99   -1.41    0.15    0.59   -0.13    0.00    0.00      -2.80    1.37   -0.31
#  18    1.31   -1.38    0.16   -0.57   -0.15    0.00    0.00      -0.63   -1.58   -0.42
#  19   -0.07   -1.51    0.23    0.00   -0.12    0.00    0.00      -1.47    0.00   -0.29
#  20    0.15   -3.97    1.71   -0.12   -0.43    0.00    0.00      -2.68   -0.27   -0.95
#  21    0.51   -1.80    0.53   -0.25   -0.15    0.00    0.00      -1.15   -0.49   -0.29
#  22    0.16   -4.92    1.59   -0.17   -0.58    0.00    0.00      -3.91   -0.28   -0.95
#  23    0.70   -2.14    0.69   -0.17   -0.24    0.00    0.00      -1.16   -0.32   -0.45
#  24    0.90   -1.89    0.29   -0.29   -0.16    0.00    0.00      -1.15   -0.53   -0.29
#  25    0.59   -7.33    3.34   -0.18   -0.62    0.00    0.00      -4.21   -0.28   -0.97
#  26   -2.34   -0.23    0.04    0.27   -0.06    0.00    0.00      -2.32    1.27   -0.27
#  27   -3.85   -0.40    0.12    1.00   -0.08    0.00    0.00      -3.22    3.39   -0.28
#  28   -2.11   -0.14    0.01    0.30   -0.03    0.00    0.00      -1.97    2.16   -0.22
#  29   -0.60   -0.11    0.00    0.10   -0.03    0.00    0.00      -0.63    0.92   -0.28
#  30   -0.34   -0.06    0.00    0.07   -0.02    0.00    0.00      -0.34    1.29   -0.27
#  31   -0.46   -0.09    0.01    0.30   -0.03    0.00    0.00      -0.28    3.05   -0.28
#  32   -7.35   -0.02    0.00    3.29    0.13    0.00    0.00      -3.95   14.77    0.58
#  33  -10.52   -0.02    0.00    3.64    0.14    0.00    0.00      -6.76   15.56    0.59
#  34  -16.16   -0.05    0.00    5.82    0.23    0.00    0.00     -10.16   15.27    0.59
#  35   -5.59   -0.04    0.00    2.87    0.27    0.00    0.00      -2.48    6.19    0.58
#  36   -2.10   -0.30    0.03    0.70   -0.06    0.00    0.00      -1.73    2.44   -0.21
#  37   -1.38   -0.28    0.04    0.30   -0.08    0.00    0.00      -1.41    1.08   -0.28
#  38   -4.34   -0.63    0.75    0.17   -0.10    0.00    0.00      -4.16    0.46   -0.28
#  39   -2.78   -0.67    0.54    0.52   -0.14    0.00    0.00      -2.53    1.07   -0.28
#  40   -1.31   -0.19    0.02    0.36   -0.05    0.00    0.00      -1.17    2.05   -0.26
#  41   -1.67   -0.93    1.04    0.58   -0.10    0.00    0.00      -1.08    1.52   -0.26
#  42   -0.67   -0.26    0.04    0.71   -0.05    0.00    0.00      -0.23    3.06   -0.22
#  43   -2.79   -0.58    0.26    0.54   -0.14    0.00    0.00      -2.71    1.09   -0.28

@<TRIPOS>MOLECULE
          T537294        27
   43    44     0     0     0



@<TRIPOS>ATOM
      1 C1          3.5611    -5.6629    92.1858 C.3        1          -0.1736
      2 C2          2.4664    -6.2820    93.0575 C.3        1           0.4066
      3 C3          1.9392    -7.5615    92.4050 C.3        1          -0.1720
      4 N1          1.3662    -5.3187    93.2458 N.pl3      1          -0.6981
      5 C4          0.4815    -5.5496    94.2678 C.cat      1           0.7437
      6 N2         -0.7846    -5.0388    94.1990 N.pl3      1          -0.7846
      7 N3          0.8444    -6.2610    95.3150 N.pl3      1          -0.6212
      8 H1          0.2072    -6.4063    96.0316 H          1           0.4497
      9 C5          2.0783    -6.7923    95.4154 C.2        1           0.5896
     10 N4          2.4060    -7.5035    96.4656 N.2        1          -0.6581
     11 N5          2.9994    -6.5823    94.4001 N.pl3      1          -0.4879
     12 O1          4.3928    -6.6532    94.6417 O.3        1          -0.0673
     13 C6          4.8634    -5.7136    95.6102 C.3        1           0.0187
     14 C7          6.3716    -5.5195    95.4417 C.3        1          -0.1144
     15 C8          7.0836    -6.8588    95.6424 C.3        1           0.0610
     16 O2          6.8106    -7.3513    96.9557 O.3        1          -0.2892
     17 C9          7.3724    -8.5410    97.2981 C.ar       1           0.1565
     18 C10         7.0770    -9.6834    96.5693 C.ar       1          -0.1825
     19 C11         7.6496   -10.8923    96.9185 C.ar       1           0.0111
     20 Cl1         7.2804   -12.3227    96.0067 Cl         1          -0.0298
     21 C12         8.5179   -10.9628    97.9950 C.ar       1          -0.0568
     22 Cl2         9.2362   -12.4818    98.4315 Cl         1          -0.0268
     23 C13         8.8140    -9.8243    98.7228 C.ar       1          -0.0490
     24 C14         8.2466    -8.6127    98.3737 C.ar       1          -0.0551
     25 Cl3         8.6233    -7.1831    99.2837 Cl         1          -0.0266
     26 H2          3.1580    -5.4447    91.1968 H          1           0.1125
     27 H3          3.9135    -4.7400    92.6463 H          1           0.1017
     28 H4          4.3914    -6.3630    92.0935 H          1           0.0812
     29 H5          1.1605    -7.9951    93.0324 H          1           0.1077
     30 H6          1.5262    -7.3256    91.4242 H          1           0.0659
     31 H7          2.7554    -8.2754    92.2933 H          1           0.0983
     32 H8          1.2714    -4.5467    92.6661 H          1           0.4477
     33 H9         -1.0548    -4.5147    93.4289 H          1           0.4451
     34 H10        -1.4125    -5.2005    94.9202 H          1           0.4420
     35 H11         1.7594    -7.6488    97.1738 H          1           0.3661
     36 H12         4.3560    -4.7594    95.4670 H          1           0.0690
     37 H13         4.6550    -6.0893    96.6119 H          1           0.0668
     38 H14         6.5799    -5.1439    94.4398 H          1           0.0967
     39 H15         6.7304    -4.8030    96.1803 H          1           0.0954
     40 H16         6.7248    -7.5755    94.9037 H          1           0.0714
     41 H17         8.1582    -6.7206    95.5224 H          1           0.0711
     42 H18         6.3999    -9.6287    95.7296 H          1           0.1533
     43 H19         9.4916    -9.8812    99.5618 H          1           0.1640
@<TRIPOS>BOND
     1    1    2 1
     2    1   26 1
     3    1   27 1
     4    1   28 1
     5    2   11 1
     6    2    3 1
     7    2    4 1
     8    3   29 1
     9    3   30 1
    10    3   31 1
    11    4    5 1
    12    4   32 1
    13    5    6 1
    14    5    7 2
    15    6   33 1
    16    6   34 1
    17    7    8 1
    18    7    9 1
    19    9   10 2
    20    9   11 1
    21   10   35 1
    22   11   12 1
    23   12   13 1
    24   13   14 1
    25   13   36 1
    26   13   37 1
    27   14   15 1
    28   14   38 1
    29   14   39 1
    30   15   16 1
    31   15   40 1
    32   15   41 1
    33   16   17 1
    34   17   24 ar
    35   17   18 ar
    36   18   19 ar
    37   18   42 1
    38   19   20 1
    39   19   21 ar
    40   21   22 1
    41   21   23 ar
    42   23   24 ar
    43   23   43 1
    44   24   25 1
##########                 Name:              T526748
##########          Protonation:                  100
##########               SMILES:   COc1ccc(cc1OC)CC[NH2+]CCCCCC[NH2+]CCc2ccc(cc2)c3ccccc3
##########            Long Name:   (3,4-dimethoxyphenyl)ethyl-[6-[2-(4-phenylphenyl)ethylammonio]hexyl]ammonium
##########          FlexRecCode: 1
##########               Number:                   67
##########   Ligand Source File: /raidb/db2/rgc/tcams/tcams-0000184.db2.gz
##########           GlobalRank: 361
##########                 Rank:                    1
##########               Setnum:                    6
##########             Matchnum:                   66
##########                Cloud:                    1
##########        Electrostatic:           -46.984005
##########        Van der Waals:           -24.157234
##########  Ligand Polar Desolv:            10.771552
########## Ligand Apolar Desolv:            -4.226382
##########      Internal Energy:             0.000000
##########      Receptor Energy: 0.0
########## Receptor Desolvation:             0.000000
########## Receptor Hydrophobic:             0.000000
##########         Total Energy: -64.6
##########        Ligand Charge:             2.000000
##########            Arbitrary:    +999.9990
##########     heavy atom count:   34
##########           pose count:    1
##########        Ligand Energy:             0.000000
# num electro vdwattr vdwrepu polsolv apolsol rdesolv rhydroe totalscore fullpol fullapo
#   1   -0.02   -0.13    0.01    0.02    0.00    0.00    0.00      -0.13    0.23    0.03
#   2    0.23   -0.07    0.00   -0.13    0.03    0.00    0.00       0.06   -2.94    0.62
#   3   -0.18   -0.08    0.00   -0.01   -0.01    0.00    0.00      -0.28   -0.33   -0.31
#   4    0.69   -0.12    0.00   -0.17   -0.02    0.00    0.00       0.38   -3.17   -0.42
#   5    0.49   -0.16    0.00   -0.17   -0.03    0.00    0.00       0.14   -2.54   -0.45
#   6    0.22   -0.15    0.00   -0.09   -0.02    0.00    0.00      -0.04   -1.37   -0.36
#   7    0.20   -0.17    0.00   -0.41   -0.03    0.00    0.00      -0.41   -3.64   -0.25
#   8    0.05   -0.43    0.05    0.22   -0.09    0.00    0.00      -0.20    1.03   -0.40
#   9    7.35   -0.41    0.02   -4.37    0.15    0.00    0.00       2.74  -21.71    0.73
#  10   -4.79    0.00    0.00    1.04    0.03    0.00    0.00      -3.74   21.73    0.57
#  11   -7.35   -0.01    0.00    1.99    0.05    0.00    0.00      -5.31   21.80    0.57
#  12    0.21   -0.60    0.05    0.13   -0.13    0.00    0.00      -0.35    0.39   -0.40
#  13    4.08   -1.03    0.26   -2.03   -0.08    0.00    0.00       1.20   -6.15   -0.24
#  14    2.05   -0.48    0.04   -1.08   -0.05    0.00    0.00       0.49   -5.02   -0.22
#  15    3.12   -1.03    0.29   -1.45   -0.06    0.00    0.00       0.86   -5.01   -0.22
#  16    2.19   -0.32    0.02   -1.16   -0.05    0.00    0.00       0.68   -6.14   -0.24
#  17    0.17   -0.45    0.04    0.09   -0.09    0.00    0.00      -0.24    0.40   -0.40
#  18   15.57   -1.04    0.29   -5.70    0.19    0.00    0.00       9.31  -21.62    0.73
#  19  -11.15   -0.01    0.00    2.63    0.07    0.00    0.00      -8.46   21.59    0.57
#  20  -20.78   -0.07    0.01    6.49    0.17    0.00    0.00     -14.18   21.58    0.57
#  21    0.19   -0.69    0.07    0.32   -0.12    0.00    0.00      -0.23    1.09   -0.40
#  22    3.28   -0.92    0.10   -1.54   -0.10    0.00    0.00       0.83   -3.82   -0.25
#  23    3.12   -0.94    0.06   -0.46   -0.12    0.00    0.00       1.66   -1.44   -0.36
#  24    3.13   -1.31    0.31   -0.94   -0.15    0.00    0.00       1.04   -2.72   -0.45
#  25    2.24   -1.28    0.24   -0.85   -0.14    0.00    0.00       0.22   -2.58   -0.44
#  26    0.16   -1.05    0.08   -0.58   -0.14    0.00    0.00      -1.53   -1.69   -0.41
#  27    1.05   -1.47    0.27   -0.95   -0.16    0.00    0.00      -1.27   -2.58   -0.44
#  28    1.72   -1.01    0.06   -0.95   -0.16    0.00    0.00      -0.32   -2.72   -0.45
#  29    0.61   -1.31    0.14   -0.23   -0.15    0.00    0.00      -0.95   -0.63   -0.41
#  30    0.40   -1.57    0.28   -0.52   -0.16    0.00    0.00      -1.58   -1.45   -0.44
#  31    0.65   -1.51    0.19   -0.58   -0.21    0.00    0.00      -1.46   -1.31   -0.47
#  32    0.82   -1.65    0.33   -0.75   -0.25    0.00    0.00      -1.50   -1.44   -0.47
#  33    1.34   -1.94    0.72   -0.64   -0.23    0.00    0.00      -0.74   -1.31   -0.47
#  34    1.31   -1.61    0.26   -0.69   -0.21    0.00    0.00      -0.95   -1.45   -0.44
#  35    0.24   -0.13    0.00   -0.22   -0.03    0.00    0.00      -0.14   -3.40   -0.40
#  36   -0.11   -0.08    0.00    0.01   -0.01    0.00    0.00      -0.20    0.13   -0.31
#  37    0.25   -0.06    0.00   -0.15    0.02    0.00    0.00       0.06   -4.13    0.62
#  38   -0.02   -0.08    0.00    0.01    0.00    0.00    0.00      -0.08    0.21    0.03
#  39   -0.05   -0.05    0.00    0.06   -0.02    0.00    0.00      -0.06    1.09   -0.27
#  40   -0.04   -0.02    0.00    0.02   -0.01    0.00    0.00      -0.05    0.82   -0.26
#  41   -0.38   -0.06    0.00    0.06   -0.02    0.00    0.00      -0.40    0.98   -0.28
#  42   -0.75   -0.03    0.00    0.06   -0.01    0.00    0.00      -0.72    2.09   -0.22
#  43   -1.01   -0.05    0.00    0.28   -0.01    0.00    0.00      -0.79    5.35   -0.28
#  44   -0.19   -0.04    0.00    0.20   -0.01    0.00    0.00      -0.05    4.84   -0.28
#  45   -0.18   -0.05    0.00    0.21   -0.01    0.00    0.00      -0.03    5.14   -0.28
#  46   -1.59   -0.20    0.02    1.31   -0.06    0.00    0.00      -0.52    5.72   -0.28
#  47   -0.68   -0.32    0.22    1.03   -0.05    0.00    0.00       0.20    5.49   -0.28
#  48   -3.86   -0.25    0.02    1.73   -0.08    0.00    0.00      -2.43    5.82   -0.28
#  49   -1.65   -0.25    0.06    1.03   -0.05    0.00    0.00      -0.87    5.76   -0.28
#  50   -3.30   -0.55    0.28    1.25   -0.09    0.00    0.00      -2.41    3.85   -0.28
#  51   -2.78   -0.84    1.41    1.23   -0.09    0.00    0.00      -1.07    3.87   -0.28
#  52   -0.58   -0.08    0.00    0.19   -0.02    0.00    0.00      -0.50    2.37   -0.28
#  53   -1.29   -0.07    0.00    0.16   -0.02    0.00    0.00      -1.22    2.35   -0.28
#  54   -3.43   -0.81    0.90    0.66   -0.08    0.00    0.00      -2.76    2.36   -0.28
#  55   -2.07   -0.59    0.34    0.79   -0.09    0.00    0.00      -1.61    2.37   -0.28
#  56   -0.58   -0.05    0.00    0.19   -0.01    0.00    0.00      -0.46    3.84   -0.28
#  57   -1.22   -0.05    0.00    0.20   -0.01    0.00    0.00      -1.09    3.82   -0.28
#  58   -1.90   -0.27    0.08    1.29   -0.06    0.00    0.00      -0.87    5.77   -0.28
#  59   -1.35   -0.06    0.00    0.35   -0.02    0.00    0.00      -1.07    5.76   -0.28
#  60   -3.49   -0.39    0.16    1.54   -0.08    0.00    0.00      -2.26    5.55   -0.28
#  61   -2.57   -0.10    0.00    0.50   -0.03    0.00    0.00      -2.19    5.56   -0.28
#  62   -4.36   -0.55    0.25    2.00   -0.12    0.00    0.00      -2.77    4.81   -0.28
#  63   -2.85   -0.32    0.04    1.44   -0.08    0.00    0.00      -1.78    4.81   -0.28
#  64   -5.87   -0.87    2.18    1.41   -0.08    0.00    0.00      -3.23    4.88   -0.28
#  65   -2.72   -0.73    0.76    0.47   -0.06    0.00    0.00      -2.28    1.67   -0.22
#  66   -0.52   -0.64    0.32    0.63   -0.08    0.00    0.00      -0.30    1.67   -0.22
#  67   -2.25   -0.20    0.01    1.11   -0.06    0.00    0.00      -1.40    4.87   -0.28
#  68    0.00   -0.44    0.19    0.50   -0.06    0.00    0.00       0.19    1.91   -0.22
#  69   -0.85   -0.34    0.06    0.49   -0.10    0.00    0.00      -0.73    1.43   -0.28
#  70   -0.93   -0.34    0.03    0.54   -0.13    0.00    0.00      -0.82    1.18   -0.28
#  71   -1.95   -0.43    0.10    0.61   -0.12    0.00    0.00      -1.79    1.44   -0.28
#  72   -2.03   -0.30    0.02    0.77   -0.09    0.00    0.00      -1.63    1.90   -0.22
#  73   -0.21   -0.03    0.00    0.20   -0.01    0.00    0.00      -0.05    4.97   -0.22
#  74   -0.03   -0.03    0.00    0.06   -0.01    0.00    0.00      -0.01    1.55   -0.27
#  75   -0.04   -0.01    0.00    0.04    0.00    0.00    0.00      -0.02    2.21   -0.26
#  76   -0.13   -0.04    0.00    0.05   -0.01    0.00    0.00      -0.13    1.18   -0.28

@<TRIPOS>MOLECULE
          T526748       100
   76    78     0     0     0



@<TRIPOS>ATOM
      1 C1          7.6640   -13.7990    89.2724 C.3        1           0.0221
      2 O1          7.1104   -12.6188    88.6869 O.3        1          -0.3001
      3 C2          7.9851   -11.6492    88.3073 C.ar       1           0.1213
      4 C3          8.3531   -10.6572    89.2021 C.ar       1          -0.1726
      5 C4          9.2428    -9.6725    88.8148 C.ar       1          -0.1020
      6 C5          9.7670    -9.6744    87.5355 C.ar       1          -0.1147
      7 C6         10.7361    -8.5983    87.1184 C.3        1          -0.0940
      8 C7          9.9636    -7.4186    86.5247 C.3        1          -0.0075
      9 N1          9.0396    -6.8815    87.5326 N.4        1          -0.5106
     10 H1          8.3908    -7.6020    87.8118 H          1           0.4287
     11 H2          9.5632    -6.5703    88.3370 H          1           0.4291
     12 C8          8.2979    -5.7488    86.9627 C.3        1          -0.0101
     13 C9          7.3355    -5.1894    88.0124 C.3        1          -0.1518
     14 C10         6.3515    -6.2818    88.4358 C.3        1          -0.1194
     15 C11         5.3892    -5.7224    89.4855 C.3        1          -0.1194
     16 C12         4.4052    -6.8148    89.9088 C.3        1          -0.1518
     17 C13         3.4428    -6.2555    90.9585 C.3        1          -0.0101
     18 N2          4.2049    -5.8022    92.1297 N.4        1          -0.5106
     19 H3          4.7142    -6.5804    92.5211 H          1           0.4290
     20 H4          4.8537    -5.0819    91.8505 H          1           0.4289
     21 C14         3.2807    -5.2653    93.1374 C.3        1          -0.0069
     22 C15         4.0745    -4.7932    94.3572 C.3        1          -0.0985
     23 C16         4.8353    -5.9552    94.9418 C.ar       1          -0.1186
     24 C17         6.1177    -6.2305    94.5021 C.ar       1          -0.1028
     25 C18         6.8191    -7.2936    95.0340 C.ar       1          -0.1107
     26 C19         6.2331    -8.0900    96.0158 C.ar       1          -0.0132
     27 C20         4.9412    -7.8081    96.4550 C.ar       1          -0.1106
     28 C21         4.2511    -6.7393    95.9202 C.ar       1          -0.1027
     29 C22         6.9822    -9.2346    96.5911 C.ar       1          -0.0705
     30 C23         6.8912   -10.4953    96.0048 C.ar       1          -0.1048
     31 C24         7.5904   -11.5563    96.5438 C.ar       1          -0.1166
     32 C25         8.3801   -11.3698    97.6640 C.ar       1          -0.1049
     33 C26         8.4736   -10.1205    98.2503 C.ar       1          -0.1166
     34 C27         7.7836    -9.0512    97.7160 C.ar       1          -0.1048
     35 C28         9.4043   -10.6615    86.6381 C.ar       1          -0.1663
     36 C29         8.5170   -11.6544    87.0214 C.ar       1           0.1063
     37 O2          8.1632   -12.6290    86.1416 O.3        1          -0.2995
     38 C30         7.0235   -12.3764    85.3173 C.3        1           0.0254
     39 H5          6.8600   -14.4890    89.5286 H          1           0.0587
     40 H6          8.3387   -14.2754    88.5610 H          1           0.0602
     41 H7          8.2156   -13.5328    90.1741 H          1           0.1097
     42 H8          7.9447   -10.6530    90.2017 H          1           0.1431
     43 H9          9.5289    -8.8999    89.5131 H          1           0.1288
     44 H10        11.3016    -8.2621    87.9874 H          1           0.0944
     45 H11        11.4217    -8.9969    86.3706 H          1           0.0967
     46 H12        10.6646    -6.6403    86.2231 H          1           0.1346
     47 H13         9.3981    -7.7549    85.6558 H          1           0.1331
     48 H14         8.9988    -4.9704    86.6611 H          1           0.1325
     49 H15         7.7324    -6.0850    86.0937 H          1           0.1321
     50 H16         7.9011    -4.8531    88.8813 H          1           0.0898
     51 H17         6.7852    -4.3488    87.5894 H          1           0.0900
     52 H18         5.7861    -6.6182    87.5668 H          1           0.0789
     53 H19         6.9019    -7.1223    88.8587 H          1           0.0788
     54 H20         5.9548    -5.3861    90.3544 H          1           0.0789
     55 H21         4.8389    -4.8820    89.0626 H          1           0.0790
     56 H22         3.8396    -7.1512    89.0399 H          1           0.0900
     57 H23         4.9555    -7.6553    90.3317 H          1           0.0899
     58 H24         2.8925    -5.4149    90.5355 H          1           0.1323
     59 H25         2.7417    -7.0338    91.2600 H          1           0.1323
     60 H26         2.7305    -4.4247    92.7145 H          1           0.1338
     61 H27         2.5798    -6.0435    93.4390 H          1           0.1338
     62 H28         4.7755    -4.0149    94.0555 H          1           0.0955
     63 H29         3.3889    -4.3947    95.1050 H          1           0.0955
     64 H30         6.5707    -5.6127    93.7408 H          1           0.1256
     65 H31         7.8199    -7.5078    94.6897 H          1           0.1327
     66 H32         4.4823    -8.4226    97.2155 H          1           0.1328
     67 H33         3.2515    -6.5170    96.2634 H          1           0.1256
     68 H34         6.2745   -10.6422    95.1305 H          1           0.1251
     69 H35         7.5207   -12.5339    96.0901 H          1           0.1295
     70 H36         8.9252   -12.2028    98.0827 H          1           0.1292
     71 H37         9.0913    -9.9805    99.1251 H          1           0.1295
     72 H38         7.8609    -8.0752    98.1719 H          1           0.1252
     73 H39         9.8154   -10.6609    85.6393 H          1           0.1362
     74 H40         6.8513   -13.2314    84.6635 H          1           0.0567
     75 H41         6.1477   -12.2180    85.9468 H          1           0.0529
     76 H42         7.2022   -11.4870    84.7129 H          1           0.1082
@<TRIPOS>BOND
     1    1    2 1
     2    1   39 1
     3    1   40 1
     4    1   41 1
     5    2    3 1
     6    3   36 ar
     7    3    4 ar
     8    4    5 ar
     9    4   42 1
    10    5    6 ar
    11    5   43 1
    12    6    7 1
    13    6   35 ar
    14    7    8 1
    15    7   44 1
    16    7   45 1
    17    8    9 1
    18    8   46 1
    19    8   47 1
    20    9   10 1
    21    9   11 1
    22    9   12 1
    23   12   13 1
    24   12   48 1
    25   12   49 1
    26   13   14 1
    27   13   50 1
    28   13   51 1
    29   14   15 1
    30   14   52 1
    31   14   53 1
    32   15   16 1
    33   15   54 1
    34   15   55 1
    35   16   17 1
    36   16   56 1
    37   16   57 1
    38   17   18 1
    39   17   58 1
    40   17   59 1
    41   18   19 1
    42   18   20 1
    43   18   21 1
    44   21   22 1
    45   21   60 1
    46   21   61 1
    47   22   23 1
    48   22   62 1
    49   22   63 1
    50   23   28 ar
    51   23   24 ar
    52   24   25 ar
    53   24   64 1
    54   25   26 ar
    55   25   65 1
    56   26   27 ar
    57   26   29 1
    58   27   28 ar
    59   27   66 1
    60   28   67 1
    61   29   34 ar
    62   29   30 ar
    63   30   31 ar
    64   30   68 1
    65   31   32 ar
    66   31   69 1
    67   32   33 ar
    68   32   70 1
    69   33   34 ar
    70   33   71 1
    71   34   72 1
    72   35   36 ar
    73   35   73 1
    74   36   37 1
    75   37   38 1
    76   38   74 1
    77   38   75 1
    78   38   76 1
##########                 Name:              T533478
##########          Protonation:                   97
##########               SMILES:   c1ccc2c(c1)c(c3ccccc3[nH+]2)NCCOCCNc4c5ccccc5[nH+]c6c4cccc6
##########            Long Name:   N-[2-[2-(acridin-10-ium-9-ylamino)ethoxy]ethyl]acridin-10-ium-9-amine
##########          FlexRecCode: 1
##########               Number:                  242
##########   Ligand Source File: /raidb/db2/rgc/tcams/tcams-0001091.db2.gz
##########           GlobalRank: 361
##########                 Rank:                    1
##########               Setnum:                  224
##########             Matchnum:                 7664
##########                Cloud:                    1
##########        Electrostatic:           -38.871986
##########        Van der Waals:           -29.931919
##########  Ligand Polar Desolv:             7.919380
########## Ligand Apolar Desolv:            -3.712744
##########      Internal Energy:             0.000000
##########      Receptor Energy: 0.0
########## Receptor Desolvation:             0.000000
########## Receptor Hydrophobic:             0.000000
##########         Total Energy: -64.6
##########        Ligand Charge:             2.000000
##########            Arbitrary:    +999.9990
##########     heavy atom count:   35
##########           pose count:    1
##########        Ligand Energy:             0.000000
# num electro vdwattr vdwrepu polsolv apolsol rdesolv rhydroe totalscore fullpol fullapo
#   1   -0.93   -0.68    0.14    1.05   -0.13    0.00    0.00      -0.56    4.14   -0.51
#   2   -0.18   -0.70    0.35    0.16   -0.02    0.00    0.00      -0.39    0.77   -0.11
#   3    2.98   -0.50    0.09   -1.72    0.18    0.00    0.00       1.03  -11.35    1.19
#   4   -0.19   -0.23    0.02    0.10   -0.01    0.00    0.00      -0.31    0.91   -0.12
#   5   -0.97   -0.15    0.01    0.40   -0.05    0.00    0.00      -0.76    4.32   -0.51
#   6    9.35   -0.64    0.08   -4.28    0.19    0.00    0.00       4.71  -23.12    1.05
#   7   -5.21   -0.60    0.04    2.39   -0.13    0.00    0.00      -3.51   11.78   -0.63
#   8    1.07   -0.57    0.02   -1.07   -0.10    0.00    0.00      -0.65   -4.18   -0.40
#   9    0.11   -0.54    0.04   -0.20   -0.10    0.00    0.00      -0.70   -0.85   -0.45
#  10   -0.07   -0.70    0.13   -0.83   -0.10    0.00    0.00      -1.56   -3.96   -0.47
#  11    0.00   -0.80    0.12   -0.22   -0.11    0.00    0.00      -1.01   -0.95   -0.47
#  12    1.16   -1.09    0.18   -1.42   -0.14    0.00    0.00      -1.32   -4.69   -0.46
#  13   -2.46   -0.94    0.10    1.72   -0.23    0.00    0.00      -1.81    5.45   -0.73
#  14   12.38   -2.19    1.35   -5.12    0.37    0.00    0.00       6.79  -13.24    0.96
#  15  -17.97   -0.18    0.09    5.40    0.23    0.00    0.00     -12.43   13.49    0.57
#  16   -5.87   -1.46    0.24    2.10   -0.28    0.00    0.00      -5.27    5.50   -0.73
#  17    6.08   -2.50    0.84   -2.22   -0.21    0.00    0.00       1.99   -4.78   -0.46
#  18    0.15   -2.44    0.85   -0.41   -0.21    0.00    0.00      -2.07   -0.93   -0.47
#  19    3.56   -1.78    0.55   -1.35   -0.16    0.00    0.00       0.82   -3.94   -0.47
#  20    1.17   -0.97    0.14   -0.27   -0.12    0.00    0.00      -0.05   -1.04   -0.45
#  21    2.92   -0.86    0.10   -1.17   -0.11    0.00    0.00       0.88   -4.23   -0.40
#  22    9.72   -2.04    1.52   -6.12    0.29    0.00    0.00       3.37  -22.76    1.07
#  23   -5.63   -0.98    0.12    3.19   -0.17    0.00    0.00      -3.47   11.50   -0.63
#  24    1.72   -1.02    0.07   -1.38   -0.13    0.00    0.00      -0.74   -4.10   -0.40
#  25    0.47   -1.30    0.12   -0.36   -0.17    0.00    0.00      -1.25   -0.94   -0.45
#  26    1.50   -2.39    0.86   -1.98   -0.24    0.00    0.00      -2.26   -3.86   -0.47
#  27    0.01   -3.42    1.97   -0.53   -0.25    0.00    0.00      -2.22   -0.98   -0.47
#  28    2.47   -2.20    0.50   -2.15   -0.22    0.00    0.00      -1.60   -4.58   -0.46
#  29   -3.14   -1.12    0.09    1.95   -0.26    0.00    0.00      -2.48    5.39   -0.73
#  30    9.08   -0.82    0.03   -4.03    0.29    0.00    0.00       4.56  -13.22    0.96
#  31   -9.20   -0.01    0.00    1.94    0.08    0.00    0.00      -7.19   13.58    0.57
#  32   -4.46   -0.68    0.04    1.24   -0.16    0.00    0.00      -4.02    5.55   -0.73
#  33    3.98   -0.69    0.04   -1.13   -0.10    0.00    0.00       2.10   -4.99   -0.46
#  34    0.11   -0.73    0.08   -0.19   -0.10    0.00    0.00      -0.83   -0.84   -0.47
#  35    2.70   -0.58    0.06   -0.70   -0.08    0.00    0.00       1.39   -3.97   -0.47
#  36    0.98   -0.59    0.05   -0.26   -0.08    0.00    0.00       0.10   -1.21   -0.36
#  37    2.58   -0.71    0.05   -1.01   -0.10    0.00    0.00       0.81   -4.23   -0.40
#  38   -0.25   -0.24    0.06    0.42   -0.05    0.00    0.00      -0.05    2.46   -0.28
#  39   -0.66   -0.18    0.01    0.60   -0.05    0.00    0.00      -0.28    3.42   -0.28
#  40   -0.49   -0.75    2.29    0.35   -0.05    0.00    0.00       1.34    1.81   -0.28
#  41   -0.42   -0.12    0.01    0.18   -0.02    0.00    0.00      -0.37    1.57   -0.20
#  42   -0.24   -0.10    0.02    0.16   -0.02    0.00    0.00      -0.19    1.85   -0.20
#  43   -0.25   -0.03    0.00    0.08   -0.01    0.00    0.00      -0.22    2.44   -0.28
#  44   -0.37   -0.03    0.00    0.08   -0.01    0.00    0.00      -0.32    2.80   -0.27
#  45   -0.66   -0.03    0.00    0.09   -0.01    0.00    0.00      -0.60    2.96   -0.28
#  46   -6.17   -0.02    0.00    2.60    0.12    0.00    0.00      -3.48   13.09    0.59
#  47   -0.39   -0.12    0.01    0.58   -0.03    0.00    0.00       0.05    5.26   -0.27
#  48    0.28   -0.18    0.07    0.51   -0.04    0.00    0.00       0.65    3.87   -0.28
#  49    0.06   -0.15    0.02    0.62   -0.04    0.00    0.00       0.50    3.87   -0.28
#  50   -1.63   -0.36    0.13    1.30   -0.07    0.00    0.00      -0.64    4.89   -0.28
#  51   -6.90   -1.18    1.32    2.40   -0.14    0.00    0.00      -4.49    4.95   -0.28
#  52   -6.31   -1.01    1.19    1.72   -0.12    0.00    0.00      -4.53    4.06   -0.28
#  53   -3.73   -0.46    0.28    1.09   -0.07    0.00    0.00      -2.89    4.24   -0.28
#  54   -3.28   -0.11    0.01    0.66   -0.02    0.00    0.00      -2.74    5.26   -0.17
#  55   -6.25   -0.16    0.05    3.74    0.17    0.00    0.00      -2.44   12.95    0.59
#  56   -1.76   -0.24    0.02    1.03   -0.06    0.00    0.00      -1.00    4.94   -0.27
#  57   -2.30   -0.63    0.41    1.50   -0.12    0.00    0.00      -1.14    3.62   -0.28
#  58   -2.46   -1.17    0.96    2.24   -0.17    0.00    0.00      -0.59    3.78   -0.28
#  59   -2.84   -0.55    0.16    2.20   -0.13    0.00    0.00      -1.15    4.93   -0.28
#  60   -3.64   -0.13    0.00    0.63   -0.04    0.00    0.00      -3.17    5.04   -0.28
#  61   -2.98   -0.16    0.01    0.75   -0.05    0.00    0.00      -2.42    4.44   -0.28
#  62   -2.61   -0.08    0.00    0.36   -0.02    0.00    0.00      -2.35    4.99   -0.28
#  63   -2.59   -0.10    0.00    0.53   -0.02    0.00    0.00      -2.16    5.39   -0.17

@<TRIPOS>MOLECULE
          T533478        97
   63    68     0     0     0



@<TRIPOS>ATOM
      1 C1          7.4392   -10.3937    93.9059 C.3        1           0.1382
      2 C2          8.4317   -10.8488    92.8341 C.3        1           0.0251
      3 O1          8.1825   -10.1362    91.6207 O.3        1          -0.3806
      4 C3          9.0598   -10.4883    90.5491 C.3        1           0.0348
      5 C4          9.0586    -9.3732    89.5016 C.3        1           0.1382
      6 N1          9.5159    -8.1248    90.1168 N.pl3      1          -0.7893
      7 C5         10.1791    -7.1850    89.3575 C.ar       1           0.3992
      8 C6         11.5817    -7.2130    89.2264 C.ar       1          -0.1392
      9 C7         12.3472    -8.2022    89.8672 C.ar       1          -0.0407
     10 C8         13.7001    -8.2059    89.7232 C.ar       1          -0.1226
     11 C9         14.3394    -7.2392    88.9471 C.ar       1          -0.0020
     12 C10        13.6324    -6.2670    88.3127 C.ar       1          -0.1729
     13 C11        12.2282    -6.2273    88.4351 C.ar       1           0.2198
     14 N2         11.5239    -5.2799    87.8182 N.ar       1          -0.4991
     15 H1         11.9907    -4.6184    87.2842 H          1           0.4438
     16 C12        10.1969    -5.2150    87.9133 C.ar       1           0.2201
     17 C13         9.4822    -4.1989    87.2464 C.ar       1          -0.1706
     18 C14         8.1282    -4.1441    87.3512 C.ar       1          -0.0042
     19 C15         7.4252    -5.0793    88.1107 C.ar       1          -0.1226
     20 C16         8.0774    -6.0751    88.7695 C.ar       1          -0.0479
     21 C17         9.4771    -6.1676    88.6816 C.ar       1          -0.1404
     22 N3          7.5999    -8.9566    94.1417 N.pl3      1          -0.7925
     23 C18         6.5196    -8.1984    94.5384 C.ar       1           0.4011
     24 C19         6.2222    -8.0126    95.9030 C.ar       1          -0.1386
     25 C20         7.0203    -8.5961    96.9019 C.ar       1          -0.0411
     26 C21         6.7105    -8.4000    98.2121 C.ar       1          -0.1213
     27 C22         5.6091    -7.6266    98.5786 C.ar       1          -0.0006
     28 C23         4.8144    -7.0465    97.6409 C.ar       1          -0.1735
     29 C24         5.1005    -7.2242    96.2717 C.ar       1           0.2194
     30 N4          4.3295    -6.6609    95.3429 N.ar       1          -0.4984
     31 H2          3.5691    -6.1275    95.6221 H          1           0.4438
     32 C25         4.5730    -6.8088    94.0417 C.ar       1           0.2200
     33 C26         3.7366    -6.1979    93.0850 C.ar       1          -0.1712
     34 C27         3.9961    -6.3563    91.7603 C.ar       1          -0.0050
     35 C28         5.0811    -7.1166    91.3238 C.ar       1          -0.1277
     36 C29         5.9119    -7.7224    92.2148 C.ar       1          -0.0508
     37 C30         5.6789    -7.5780    93.5933 C.ar       1          -0.1405
     38 H3          6.4225   -10.5950    93.5685 H          1           0.0913
     39 H4          7.6293   -10.9371    94.8314 H          1           0.1039
     40 H5          9.4484   -10.6474    93.1715 H          1           0.0692
     41 H6          8.3122   -11.9179    92.6586 H          1           0.0576
     42 H7         10.0701   -10.6224    90.9358 H          1           0.0602
     43 H8          8.7197   -11.4172    90.0914 H          1           0.0681
     44 H9          9.7277    -9.6419    88.6842 H          1           0.0931
     45 H10         8.0484    -9.2391    89.1150 H          1           0.0865
     46 H11         9.3518    -7.9596    91.0584 H          1           0.4271
     47 H12        11.8638    -8.9558    90.4714 H          1           0.1553
     48 H13        14.2867    -8.9669    90.2164 H          1           0.1534
     49 H14        15.4147    -7.2631    88.8491 H          1           0.1584
     50 H15        14.1449    -5.5267    87.7162 H          1           0.1595
     51 H16        10.0093    -3.4659    86.6540 H          1           0.1597
     52 H17         7.5874    -3.3628    86.8378 H          1           0.1582
     53 H18         6.3494    -5.0117    88.1770 H          1           0.1518
     54 H19         7.5219    -6.7932    89.3544 H          1           0.1525
     55 H20         8.4666    -8.5389    94.0185 H          1           0.4260
     56 H21         7.8753    -9.1977    96.6307 H          1           0.1567
     57 H22         7.3250    -8.8493    98.9782 H          1           0.1546
     58 H23         5.3837    -7.4865    99.6255 H          1           0.1590
     59 H24         3.9656    -6.4513    97.9437 H          1           0.1596
     60 H25         2.8916    -5.6059    93.4039 H          1           0.1595
     61 H26         3.3510    -5.8857    91.0331 H          1           0.1574
     62 H27         5.2638    -7.2261    90.2651 H          1           0.1493
     63 H28         6.7487    -8.3085    91.8645 H          1           0.1617
@<TRIPOS>BOND
     1    1    2 1
     2    1   22 1
     3    1   38 1
     4    1   39 1
     5    2    3 1
     6    2   40 1
     7    2   41 1
     8    3    4 1
     9    4    5 1
    10    4   42 1
    11    4   43 1
    12    5    6 1
    13    5   44 1
    14    5   45 1
    15    6    7 1
    16    6   46 1
    17    7   21 ar
    18    7    8 ar
    19    8   13 ar
    20    8    9 ar
    21    9   10 ar
    22    9   47 1
    23   10   11 ar
    24   10   48 1
    25   11   12 ar
    26   11   49 1
    27   12   13 ar
    28   12   50 1
    29   13   14 ar
    30   14   15 1
    31   14   16 ar
    32   16   21 ar
    33   16   17 ar
    34   17   18 ar
    35   17   51 1
    36   18   19 ar
    37   18   52 1
    38   19   20 ar
    39   19   53 1
    40   20   21 ar
    41   20   54 1
    42   22   23 1
    43   22   55 1
    44   23   37 ar
    45   23   24 ar
    46   24   29 ar
    47   24   25 ar
    48   25   26 ar
    49   25   56 1
    50   26   27 ar
    51   26   57 1
    52   27   28 ar
    53   27   58 1
    54   28   29 ar
    55   28   59 1
    56   29   30 ar
    57   30   31 1
    58   30   32 ar
    59   32   37 ar
    60   32   33 ar
    61   33   34 ar
    62   33   60 1
    63   34   35 ar
    64   34   61 1
    65   35   36 ar
    66   35   62 1
    67   36   37 ar
    68   36   63 1
##########                 Name:              T533370
##########          Protonation:                   35
##########               SMILES:   COc1ccc2c(c1)c(cc([nH+]2)c3ccccc3)NCCCNc4cc([nH+]c5c4cc(cc5)OC)c6ccccc6
##########            Long Name:   N,N'-bis(6-methoxy-2-phenyl-quinolin-1-ium-4-yl)propane-1,3-diamine
##########          FlexRecCode: 1
##########               Number:                  298
##########   Ligand Source File: /raidb/db2/rgc/tcams/tcams-0001086.db2.gz
##########           GlobalRank: 361
##########                 Rank:                    1
##########               Setnum:                  232
##########             Matchnum:                 2266
##########                Cloud:                    1
##########        Electrostatic:           -31.129805
##########        Van der Waals:           -33.388893
##########  Ligand Polar Desolv:             3.732273
########## Ligand Apolar Desolv:            -3.812499
##########      Internal Energy:             0.000000
##########      Receptor Energy: 0.0
########## Receptor Desolvation:             0.000000
########## Receptor Hydrophobic:             0.000000
##########         Total Energy: -64.6
##########        Ligand Charge:             2.000000
##########            Arbitrary:    +999.9990
##########     heavy atom count:   41
##########           pose count:    1
##########        Ligand Energy:             0.000000
# num electro vdwattr vdwrepu polsolv apolsol rdesolv rhydroe totalscore fullpol fullapo
#   1   -0.14   -1.17    0.29    0.07    0.01    0.00    0.00      -0.93    0.19    0.03
#   2    1.33   -1.00    0.14   -1.96    0.28    0.00    0.00      -1.21   -6.57    0.93
#   3   -0.99   -0.73    0.10    0.35   -0.07    0.00    0.00      -1.35    1.54   -0.31
#   4    0.93   -0.60    0.09   -0.50   -0.08    0.00    0.00      -0.16   -2.79   -0.44
#   5    0.75   -0.46    0.07   -0.38   -0.05    0.00    0.00      -0.08   -2.80   -0.40
#   6   -4.42   -0.36    0.02    1.59   -0.10    0.00    0.00      -3.27   11.00   -0.72
#   7   12.55   -0.46    0.02   -3.86    0.29    0.00    0.00       8.54  -22.19    1.67
#   8   -2.06   -0.39    0.03    0.58   -0.07    0.00    0.00      -1.90    3.11   -0.38
#   9    3.88   -0.73    0.15   -1.37   -0.06    0.00    0.00       1.86   -5.37   -0.24
#  10   -1.42   -0.26    0.01    0.50   -0.06    0.00    0.00      -1.23    3.11   -0.38
#  11    9.41   -0.55    0.03   -4.37    0.33    0.00    0.00       4.86  -22.19    1.67
#  12   -6.63   -0.62    0.03    2.45   -0.16    0.00    0.00      -4.94   11.00   -0.72
#  13    5.70   -0.64    0.03   -1.72   -0.09    0.00    0.00       3.27   -7.71   -0.41
#  14   -7.26   -0.80    0.03    2.76   -0.22    0.00    0.00      -5.49    9.21   -0.74
#  15   12.22   -1.14    0.07   -5.67    0.36    0.00    0.00       5.85  -14.50    0.93
#  16  -11.06   -0.03    0.00    4.58    0.15    0.00    0.00      -6.35   13.52    0.44
#  17   -3.36   -1.16    0.11    1.46   -0.27    0.00    0.00      -3.23    3.90   -0.73
#  18    2.63   -2.75    2.01   -1.23   -0.21    0.00    0.00       0.45   -2.64   -0.46
#  19    3.08   -2.34    0.92   -1.54   -0.19    0.00    0.00      -0.06   -3.42   -0.43
#  20   -3.25   -1.24    0.10    0.62   -0.12    0.00    0.00      -3.89    1.54   -0.31
#  21    6.60   -1.12    0.09   -3.00    0.42    0.00    0.00       2.99   -6.57    0.93
#  22   -0.37   -1.13    0.10    0.12    0.02    0.00    0.00      -1.27    0.19    0.03
#  23    1.87   -1.04    0.16   -0.85   -0.13    0.00    0.00       0.01   -2.79   -0.44
#  24    1.72   -0.81    0.05   -0.78   -0.11    0.00    0.00       0.07   -2.79   -0.40
#  25    2.53   -1.00    0.07   -1.04   -0.14    0.00    0.00       0.42   -2.95   -0.41
#  26    0.83   -1.44    0.17   -0.60   -0.18    0.00    0.00      -1.22   -1.50   -0.44
#  27    1.50   -1.74    0.28   -1.61   -0.22    0.00    0.00      -1.80   -3.44   -0.47
#  28    1.12   -1.76    0.36   -1.31   -0.22    0.00    0.00      -1.80   -2.77   -0.47
#  29    2.51   -2.22    0.69   -1.57   -0.21    0.00    0.00      -0.79   -3.48   -0.47
#  30    2.43   -1.42    0.19   -1.11   -0.18    0.00    0.00      -0.09   -2.67   -0.44
#  31    2.94   -0.28    0.01   -0.89   -0.05    0.00    0.00       1.72   -7.71   -0.41
#  32   -1.89   -0.20    0.00    0.72   -0.06    0.00    0.00      -1.42    9.21   -0.74
#  33    2.06   -0.21    0.01   -1.25    0.08    0.00    0.00       0.69  -14.50    0.93
#  34   -0.91    0.00    0.00    0.47    0.02    0.00    0.00      -0.42   13.52    0.44
#  35   -0.74   -0.39    0.05    0.46   -0.09    0.00    0.00      -0.70    3.90   -0.73
#  36    0.38   -0.55    0.07   -0.45   -0.08    0.00    0.00      -0.63   -2.64   -0.46
#  37    0.78   -0.77    0.10   -0.81   -0.10    0.00    0.00      -0.80   -3.42   -0.43
#  38    0.29   -0.22    0.00   -0.25   -0.03    0.00    0.00      -0.21   -2.95   -0.41
#  39    0.11   -0.20    0.01   -0.14   -0.04    0.00    0.00      -0.26   -1.50   -0.44
#  40    0.22   -0.38    0.03   -0.49   -0.07    0.00    0.00      -0.69   -3.44   -0.47
#  41    0.15   -0.88    0.24   -0.61   -0.10    0.00    0.00      -1.20   -2.77   -0.47
#  42    0.28   -0.88    0.16   -0.83   -0.11    0.00    0.00      -1.38   -3.48   -0.47
#  43    0.23   -0.41    0.01   -0.46   -0.08    0.00    0.00      -0.69   -2.67   -0.44
#  44   -0.53   -0.59    0.40    0.67   -0.10    0.00    0.00      -0.16    1.86   -0.28
#  45   -1.06   -0.56    0.31    0.51   -0.09    0.00    0.00      -0.89    1.53   -0.26
#  46   -0.74   -0.24    0.02    0.37   -0.06    0.00    0.00      -0.64    1.53   -0.26
#  47   -1.32   -0.10    0.01    0.47   -0.02    0.00    0.00      -0.97    4.81   -0.22
#  48   -8.24   -0.01    0.00    1.38    0.04    0.00    0.00      -6.83   13.99    0.45
#  49   -2.34   -0.18    0.02    0.89   -0.05    0.00    0.00      -1.67    5.04   -0.27
#  50   -1.01   -0.05    0.00    0.24   -0.01    0.00    0.00      -0.84    5.04   -0.27
#  51   -3.95   -0.65    0.59    0.76   -0.07    0.00    0.00      -3.31    2.93   -0.28
#  52   -1.86   -0.27    0.04    0.74   -0.07    0.00    0.00      -1.42    2.92   -0.28
#  53   -0.66   -0.04    0.00    0.21   -0.01    0.00    0.00      -0.50    5.03   -0.28
#  54   -1.18   -0.06    0.00    0.29   -0.02    0.00    0.00      -0.97    5.05   -0.27
#  55   -3.63   -0.01    0.00    1.60    0.05    0.00    0.00      -1.99   13.99    0.45
#  56   -3.77   -0.11    0.01    0.90   -0.02    0.00    0.00      -2.99    8.73   -0.18
#  57   -4.44   -1.03    1.74    2.74   -0.14    0.00    0.00      -1.13    5.42   -0.28
#  58   -4.32   -0.65    0.30    1.54   -0.09    0.00    0.00      -3.22    3.59   -0.22
#  59   -2.80   -0.37    0.05    0.76   -0.11    0.00    0.00      -2.48    1.86   -0.28
#  60   -1.67   -0.43    0.08    0.62   -0.11    0.00    0.00      -1.51    1.53   -0.26
#  61   -1.61   -0.43    0.06    0.59   -0.10    0.00    0.00      -1.50    1.53   -0.26
#  62   -1.42   -0.21    0.06    0.77   -0.04    0.00    0.00      -0.84    4.81   -0.22
#  63   -1.25   -0.41    0.09    2.66   -0.08    0.00    0.00       1.03    7.40   -0.21
#  64   -1.57   -0.65    0.38    1.72   -0.12    0.00    0.00      -0.24    4.10   -0.28
#  65   -2.54   -0.38    0.06    0.83   -0.11    0.00    0.00      -2.13    2.16   -0.28
#  66   -3.79   -1.04    1.14    1.16   -0.14    0.00    0.00      -2.68    2.32   -0.28
#  67   -5.19   -0.47    0.30    1.58   -0.07    0.00    0.00      -3.86    4.49   -0.21
#  68   -2.50   -0.06    0.00    0.49   -0.01    0.00    0.00      -2.08    8.73   -0.18
#  69   -0.12   -0.12    0.01    0.56   -0.03    0.00    0.00       0.31    5.42   -0.28
#  70   -1.52   -0.25    0.04    0.78   -0.05    0.00    0.00      -0.99    3.59   -0.22
#  71   -0.19   -0.02    0.00    0.19   -0.01    0.00    0.00      -0.03    7.40   -0.21
#  72   -0.24   -0.06    0.00    0.24   -0.02    0.00    0.00      -0.08    4.10   -0.28
#  73   -0.35   -0.42    0.49    0.46   -0.06    0.00    0.00       0.11    2.16   -0.28
#  74   -0.52   -0.40    0.17    0.59   -0.07    0.00    0.00      -0.23    2.32   -0.28
#  75   -1.34   -0.09    0.00    0.33   -0.02    0.00    0.00      -1.12    4.49   -0.21

@<TRIPOS>MOLECULE
          T533370        35
   75    80     0     0     0



@<TRIPOS>ATOM
      1 C1          7.5829   -12.5976    94.7396 C.3        1           0.0155
      2 O1          7.1212   -11.4481    94.0270 O.3        1          -0.3016
      3 C2          7.8011   -11.1061    92.9008 C.ar       1           0.1494
      4 C3          7.4075   -10.0046    92.1736 C.ar       1          -0.1163
      5 C4          8.1112    -9.6558    91.0136 C.ar       1          -0.0864
      6 C5          7.7366    -8.5295    90.2399 C.ar       1           0.3479
      7 N1          6.6593    -7.7361    90.6084 N.pl3      1          -0.6848
      8 C6          6.0138    -6.8711    89.6177 C.3        1           0.1041
      9 C7          4.8630    -6.1094    90.2783 C.3        1          -0.1547
     10 C8          3.8409    -7.1064    90.8282 C.3        1           0.1041
     11 N2          2.7388    -6.3771    91.4607 N.pl3      1          -0.6848
     12 C9          2.8037    -6.0548    92.8092 C.ar       1           0.3479
     13 C10         3.9010    -6.4068    93.5731 C.ar       1          -0.2606
     14 C11         3.9359    -6.0672    94.9302 C.ar       1           0.3211
     15 N3          2.9425    -5.4153    95.5062 N.ar       1          -0.5037
     16 H1          3.0036    -5.1977    96.4495 H          1           0.4383
     17 C12         1.8546    -5.0472    94.8211 C.ar       1           0.1367
     18 C13         0.8077    -4.3529    95.4529 C.ar       1          -0.0968
     19 C14        -0.2917    -3.9858    94.7409 C.ar       1          -0.1160
     20 C15        -0.4018    -4.2883    93.3813 C.ar       1           0.1494
     21 O2         -1.5120    -3.9096    92.6944 O.3        1          -0.3016
     22 C16        -2.5199    -3.2088    93.4259 C.3        1           0.0155
     23 C17         0.6051    -4.9666    92.7312 C.ar       1          -0.1164
     24 C18         1.7500    -5.3502    93.4420 C.ar       1          -0.0864
     25 C19         5.1172    -6.4492    95.7415 C.ar       1          -0.1219
     26 C20         4.9667    -7.2872    96.8450 C.ar       1          -0.0628
     27 C21         6.0695    -7.6398    97.5961 C.ar       1          -0.1152
     28 C22         7.3226    -7.1631    97.2554 C.ar       1          -0.0663
     29 C23         7.4780    -6.3308    96.1616 C.ar       1          -0.1090
     30 C24         6.3830    -5.9763    95.3999 C.ar       1          -0.0868
     31 C25         8.4763    -8.2438    89.1071 C.ar       1          -0.2606
     32 C26         9.5573    -9.0632    88.7628 C.ar       1           0.3211
     33 N4          9.8930   -10.1097    89.4947 N.ar       1          -0.5037
     34 H2         10.6488   -10.6537    89.2234 H          1           0.4382
     35 C27         9.2174   -10.4374    90.6013 C.ar       1           0.1366
     36 C28         9.5914   -11.5557    91.3674 C.ar       1          -0.0968
     37 C29         8.8968   -11.8714    92.4937 C.ar       1          -0.1161
     38 C30        10.3447    -8.7488    87.5459 C.ar       1          -0.1218
     39 C31        10.4289    -9.6756    86.5085 C.ar       1          -0.0628
     40 C32        11.1626    -9.3775    85.3782 C.ar       1          -0.1152
     41 C33        11.8136    -8.1613    85.2740 C.ar       1          -0.0664
     42 C34        11.7339    -7.2379    86.3007 C.ar       1          -0.1090
     43 C35        10.9984    -7.5230    87.4331 C.ar       1          -0.0868
     44 H3          6.9543   -12.7590    95.6152 H          1           0.1175
     45 H4          7.5330   -13.4718    94.0904 H          1           0.0675
     46 H5          8.6137   -12.4387    95.0565 H          1           0.0675
     47 H6          6.5623    -9.4142    92.4952 H          1           0.1514
     48 H7          6.3336    -7.7542    91.5220 H          1           0.4207
     49 H8          6.7420    -6.1609    89.2260 H          1           0.0925
     50 H9          5.6252    -7.4803    88.8017 H          1           0.0925
     51 H10         5.2516    -5.5003    91.0945 H          1           0.0928
     52 H11         4.3826    -5.4660    89.5413 H          1           0.0928
     53 H12         3.4522    -7.7157    90.0121 H          1           0.0925
     54 H13         4.3212    -7.7500    91.5653 H          1           0.0925
     55 H14         1.9640    -6.1197    90.9372 H          1           0.4207
     56 H15         4.7260    -6.9410    93.1254 H          1           0.1752
     57 H16         0.8763    -4.1117    96.5034 H          1           0.1612
     58 H17        -1.0914    -3.4528    95.2339 H          1           0.1617
     59 H18        -3.3488    -2.9661    92.7611 H          1           0.1175
     60 H19        -2.8799    -3.8366    94.2411 H          1           0.0675
     61 H20        -2.0999    -2.2895    93.8337 H          1           0.0675
     62 H21         0.5146    -5.1979    91.6801 H          1           0.1515
     63 H22         3.9886    -7.6596    97.1121 H          1           0.1367
     64 H23         5.9540    -8.2887    98.4516 H          1           0.1429
     65 H24         8.1829    -7.4416    97.8460 H          1           0.1427
     66 H25         8.4585    -5.9610    95.9006 H          1           0.1439
     67 H26         6.5061    -5.3302    94.5432 H          1           0.1260
     68 H27         8.2211    -7.3939    88.4917 H          1           0.1751
     69 H28        10.4333   -12.1608    91.0647 H          1           0.1612
     70 H29         9.1938   -12.7290    93.0791 H          1           0.1617
     71 H30         9.9214   -10.6255    86.5890 H          1           0.1367
     72 H31        11.2289   -10.0950    84.5738 H          1           0.1429
     73 H32        12.3867    -7.9323    84.3876 H          1           0.1427
     74 H33        12.2448    -6.2903    86.2143 H          1           0.1439
     75 H34        10.9328    -6.7993    88.2322 H          1           0.1261
@<TRIPOS>BOND
     1    1    2 1
     2    1   44 1
     3    1   45 1
     4    1   46 1
     5    2    3 1
     6    3   37 ar
     7    3    4 ar
     8    4    5 ar
     9    4   47 1
    10    5   35 ar
    11    5    6 ar
    12    6    7 1
    13    6   31 ar
    14    7    8 1
    15    7   48 1
    16    8    9 1
    17    8   49 1
    18    8   50 1
    19    9   10 1
    20    9   51 1
    21    9   52 1
    22   10   11 1
    23   10   53 1
    24   10   54 1
    25   11   12 1
    26   11   55 1
    27   12   24 ar
    28   12   13 ar
    29   13   14 ar
    30   13   56 1
    31   14   15 ar
    32   14   25 1
    33   15   16 1
    34   15   17 ar
    35   17   24 ar
    36   17   18 ar
    37   18   19 ar
    38   18   57 1
    39   19   20 ar
    40   19   58 1
    41   20   21 1
    42   20   23 ar
    43   21   22 1
    44   22   59 1
    45   22   60 1
    46   22   61 1
    47   23   24 ar
    48   23   62 1
    49   25   30 ar
    50   25   26 ar
    51   26   27 ar
    52   26   63 1
    53   27   28 ar
    54   27   64 1
    55   28   29 ar
    56   28   65 1
    57   29   30 ar
    58   29   66 1
    59   30   67 1
    60   31   32 ar
    61   31   68 1
    62   32   33 ar
    63   32   38 1
    64   33   34 1
    65   33   35 ar
    66   35   36 ar
    67   36   37 ar
    68   36   69 1
    69   37   70 1
    70   38   43 ar
    71   38   39 ar
    72   39   40 ar
    73   39   71 1
    74   40   41 ar
    75   40   72 1
    76   41   42 ar
    77   41   73 1
    78   42   43 ar
    79   42   74 1
    80   43   75 1
##########                 Name:              T540875
##########          Protonation:                   13
##########               SMILES:   1)Cl)/[NH+]=C(/NCCCCCCCC/[NH+]=C(\NC(=[NH2+])Nc2ccc(cc2)Cl)/N(CC)CC)\N(CC)CC
##########            Long Name:   -chlorophenyl)carbamimidoyl]iminio-(diethylamino)methyl]amino]octyl]ammonium
##########          FlexRecCode: 1
##########               Number:                  257
##########   Ligand Source File: /raidb/db2/rgc/tcams/tcams-0002062.db2.gz
##########           GlobalRank: 362
##########                 Rank:                    1
##########               Setnum:                  243
##########             Matchnum:                 3248
##########                Cloud:                    1
##########        Electrostatic:           -53.911556
##########        Van der Waals:           -30.780247
##########  Ligand Polar Desolv:            24.821720
########## Ligand Apolar Desolv:            -4.724758
##########      Internal Energy:             0.000000
##########      Receptor Energy: 0.0
########## Receptor Desolvation:             0.000000
########## Receptor Hydrophobic:             0.000000
##########         Total Energy: -64.59
##########        Ligand Charge:             3.000000
##########            Arbitrary:    +999.9990
##########     heavy atom count:   44
##########           pose count:    1
##########        Ligand Energy:             0.000000
# num electro vdwattr vdwrepu polsolv apolsol rdesolv rhydroe totalscore fullpol fullapo
#   1    0.24   -0.22    0.02   -0.69   -0.02    0.00    0.00      -0.68   -5.30   -0.19
#   2   -0.15   -0.09    0.00    0.37   -0.02    0.00    0.00       0.10    5.33   -0.33
#   3    0.69   -0.17    0.00   -1.61    0.03    0.00    0.00      -1.06  -20.91    0.33
#   4   -0.15   -0.25    0.01    0.68   -0.06    0.00    0.00       0.24    4.85   -0.45
#   5    0.28   -0.38    0.03   -0.79   -0.03    0.00    0.00      -0.89   -4.23   -0.17
#   6   -0.88   -0.10    0.00    1.44   -0.20    0.00    0.00       0.26   28.49   -3.89
#   7    0.97   -0.13    0.00   -1.61    0.12    0.00    0.00      -0.66  -23.70    1.70
#   8   -0.14   -0.09    0.00    0.18   -0.02    0.00    0.00      -0.06    3.44   -0.40
#   9    0.78   -0.15    0.00   -0.41   -0.02    0.00    0.00       0.21   -4.71   -0.22
#  10    0.98   -0.13    0.00   -0.36   -0.02    0.00    0.00       0.47   -4.34   -0.22
#  11    1.99   -0.29    0.01   -0.73   -0.04    0.00    0.00       0.94   -4.36   -0.22
#  12    1.93   -0.23    0.01   -0.68   -0.03    0.00    0.00       1.00   -4.76   -0.22
#  13    3.35   -0.77    0.23   -1.14   -0.05    0.00    0.00       1.61   -4.83   -0.22
#  14    2.88   -0.40    0.03   -1.25   -0.04    0.00    0.00       1.22   -6.30   -0.22
#  15   -2.17   -1.04    0.30    1.10   -0.12    0.00    0.00      -1.93    3.73   -0.41
#  16   10.56   -0.86    0.10   -7.17    0.39    0.00    0.00       3.02  -29.63    1.60
#  17   -4.84   -0.01    0.00    2.15    0.04    0.00    0.00      -2.66   24.25    0.41
#  18  -14.08   -1.12    0.19   11.08   -1.01    0.00    0.00      -4.94   37.57   -3.43
#  19   19.99   -2.12    0.73  -14.97    0.23    0.00    0.00       3.86  -36.31    0.55
#  20  -23.37   -1.65    0.22   18.09   -1.78    0.00    0.00      -8.49   42.11   -4.14
#  21   26.44   -3.79    1.68  -21.13    0.48    0.00    0.00       3.67  -39.38    0.89
#  22  -18.20   -0.10    0.01   15.70    0.34    0.00    0.00      -2.24   26.97    0.59
#  23  -14.12   -0.08    0.00   12.35    0.23    0.00    0.00      -1.62   26.09    0.49
#  24   13.64   -0.90    0.03  -10.06    0.35    0.00    0.00       3.07  -30.19    1.05
#  25   -1.66   -1.04    0.07    2.73   -0.23    0.00    0.00      -0.13    7.83   -0.67
#  26    2.03   -1.52    0.21   -2.30   -0.14    0.00    0.00      -1.72   -5.71   -0.36
#  27    0.74   -1.80    0.35   -1.43   -0.20    0.00    0.00      -2.35   -3.23   -0.46
#  28    0.28   -1.41    0.17   -1.28   -0.13    0.00    0.00      -2.37   -2.94   -0.30
#  29    0.18   -3.73    1.11   -2.18   -0.51    0.00    0.00      -5.14   -4.20   -0.99
#  30    1.45   -1.74    0.37   -1.67   -0.20    0.00    0.00      -1.78   -3.87   -0.46
#  31    2.28   -1.34    0.17   -1.51   -0.19    0.00    0.00      -0.58   -3.68   -0.46
#  32   10.31   -0.84    0.04   -8.06    0.48    0.00    0.00       1.93  -26.16    1.55
#  33   -1.01   -0.51    0.05    1.04   -0.12    0.00    0.00      -0.55    4.08   -0.49
#  34    1.72   -0.59    0.06   -2.31   -0.05    0.00    0.00      -1.18   -7.90   -0.18
#  35   -1.89   -1.06    0.19    1.63   -0.17    0.00    0.00      -1.32    3.94   -0.42
#  36    4.39   -1.70    0.65   -4.12   -0.10    0.00    0.00      -0.88   -8.45   -0.21
#  37    0.44   -0.07    0.00   -0.67    0.03    0.00    0.00      -0.27  -20.12    1.04
#  38   -0.29    0.00    0.00    0.35    0.01    0.00    0.00       0.07   19.14    0.58
#  39   -0.30   -0.08    0.00    0.59   -0.14    0.00    0.00       0.08   18.81   -4.31
#  40    0.32   -0.09    0.00   -0.72    0.02    0.00    0.00      -0.48  -21.18    0.49
#  41    0.27   -0.08    0.00   -0.64    0.03    0.00    0.00      -0.41  -20.36    1.06
#  42   -0.06   -0.06    0.00    0.13   -0.02    0.00    0.00      -0.01    4.69   -0.64
#  43    0.06   -0.06    0.00   -0.08   -0.01    0.00    0.00      -0.09   -2.98   -0.36
#  44    0.04   -0.08    0.00   -0.07   -0.02    0.00    0.00      -0.12   -1.89   -0.46
#  45    0.03   -0.21    0.01   -0.13   -0.02    0.00    0.00      -0.31   -1.59   -0.30
#  46    0.05   -1.39    0.80   -0.24   -0.14    0.00    0.00      -0.92   -1.75   -0.99
#  47    0.07   -0.24    0.01   -0.18   -0.04    0.00    0.00      -0.38   -2.05   -0.46
#  48    0.05   -0.11    0.00   -0.12   -0.02    0.00    0.00      -0.19   -2.76   -0.46
#  49   -0.06   -0.04    0.00    0.11   -0.01    0.00    0.00       0.01    2.63   -0.23
#  50   -0.16   -0.12    0.03    0.09   -0.03    0.00    0.00      -0.18    0.92   -0.28
#  51   -0.08   -0.11    0.01    0.26   -0.03    0.00    0.00       0.04    2.15   -0.28
#  52   -0.10   -0.01    0.00    0.03   -0.01    0.00    0.00      -0.09    1.58   -0.27
#  53   -0.04   -0.03    0.00    0.05   -0.01    0.00    0.00      -0.03    1.90   -0.25
#  54   -0.05   -0.06    0.00    0.24   -0.01    0.00    0.00       0.12    4.08   -0.21
#  55   -0.10   -0.13    0.02    0.39   -0.04    0.00    0.00       0.15    3.07   -0.28
#  56   -0.14   -0.14    0.01    0.07   -0.02    0.00    0.00      -0.22    0.73   -0.24
#  57   -0.10   -0.26    0.12    0.14   -0.04    0.00    0.00      -0.13    0.98   -0.24
#  58   -0.11   -0.07    0.00    0.05   -0.02    0.00    0.00      -0.15    0.73   -0.28
#  59   -0.78    0.00    0.00    0.95    0.03    0.00    0.00       0.20   19.29    0.57
#  60   -0.17   -0.02    0.00    0.10   -0.01    0.00    0.00      -0.10    3.77   -0.20
#  61   -0.13   -0.02    0.00    0.12   -0.01    0.00    0.00      -0.04    4.26   -0.22
#  62   -0.55   -0.06    0.00    0.22   -0.02    0.00    0.00      -0.41    3.43   -0.28
#  63   -0.46   -0.05    0.00    0.15   -0.01    0.00    0.00      -0.38    2.97   -0.28
#  64   -0.43   -0.03    0.00    0.06   -0.01    0.00    0.00      -0.41    1.91   -0.28
#  65   -0.50   -0.04    0.00    0.09   -0.01    0.00    0.00      -0.46    2.30   -0.28
#  66   -1.31   -0.16    0.02    0.38   -0.05    0.00    0.00      -1.12    2.23   -0.28
#  67   -1.28   -0.09    0.00    0.18   -0.03    0.00    0.00      -1.22    1.74   -0.28
#  68   -0.73   -0.03    0.00    0.05   -0.01    0.00    0.00      -0.72    1.46   -0.28
#  69   -0.86   -0.05    0.00    0.09   -0.01    0.00    0.00      -0.83    2.03   -0.28
#  70   -2.82   -0.55    0.62    0.79   -0.07    0.00    0.00      -2.02    3.39   -0.28
#  71   -2.43   -0.35    0.11    0.55   -0.06    0.00    0.00      -2.18    2.47   -0.28
#  72   -1.09   -0.06    0.00    0.20   -0.02    0.00    0.00      -0.97    3.08   -0.28
#  73   -1.35   -0.07    0.00    0.27   -0.02    0.00    0.00      -1.16    4.29   -0.28
#  74   -4.45   -0.49    0.32    2.10   -0.07    0.00    0.00      -2.58    8.44   -0.28
#  75   -4.16   -0.67    0.43    2.36   -0.10    0.00    0.00      -2.13    6.68   -0.28
#  76  -14.55   -0.09    0.01   10.90    0.13    0.00    0.00      -3.59   24.76    0.30
#  77   -8.79   -0.01    0.00    2.88    0.07    0.00    0.00      -5.85   25.25    0.59
#  78   -1.19   -0.44    0.12    3.91   -0.07    0.00    0.00       2.33   10.93   -0.20
#  79   -1.21   -0.88    0.92    2.06   -0.11    0.00    0.00       0.77    5.11   -0.28
#  80   -4.29   -0.68    0.38    1.43   -0.13    0.00    0.00      -3.29    3.13   -0.28
#  81   -6.29   -0.40    0.16    2.70   -0.09    0.00    0.00      -3.92    8.05   -0.28
#  82   -2.03   -0.32    0.18    1.29   -0.05    0.00    0.00      -0.93    6.45   -0.23
#  83   -0.88   -0.10    0.00    0.81   -0.03    0.00    0.00      -0.20    7.98   -0.28
#  84   -0.23   -0.20    0.03    0.38   -0.04    0.00    0.00      -0.07    1.81   -0.21
#  85   -0.78   -0.12    0.00    0.20   -0.03    0.00    0.00      -0.73    1.64   -0.28
#  86   -1.63   -0.28    0.05    0.81   -0.06    0.00    0.00      -1.12    2.81   -0.21
#  87   -4.59   -0.48    0.23    1.78   -0.07    0.00    0.00      -3.12    5.30   -0.22
#  88   -2.28   -0.46    0.21    2.48   -0.07    0.00    0.00      -0.12    7.55   -0.21
#  89   -1.53   -1.24    2.32    1.79   -0.12    0.00    0.00       1.21    4.03   -0.28
#  90   -2.00   -0.78    0.35    0.63   -0.09    0.00    0.00      -1.89    1.46   -0.20
#  91   -2.45   -0.26    0.01    0.53   -0.08    0.00    0.00      -2.25    1.83   -0.28
#  92   -0.12    0.00    0.00    0.16    0.01    0.00    0.00       0.05    8.78    0.35
#  93   -0.11    0.00    0.00    0.27    0.01    0.00    0.00       0.17   14.47    0.59
#  94   -0.03   -0.01    0.00    0.07    0.00    0.00    0.00       0.02    4.39   -0.23
#  95   -0.07   -0.01    0.00    0.04    0.00    0.00    0.00      -0.04    2.51   -0.28
#  96   -0.46   -0.09    0.01    0.20   -0.03    0.00    0.00      -0.37    2.17   -0.28
#  97   -0.04   -0.02    0.00    0.09   -0.01    0.00    0.00       0.02    4.49   -0.28

@<TRIPOS>MOLECULE
          T540875        13
   97    98     0     0     0



@<TRIPOS>ATOM
      1 C1          7.0842   -11.2024    84.3019 C.3        1          -0.1838
      2 C2          7.8979   -12.1500    85.1853 C.3        1           0.1563
      3 N1          9.3257   -11.8662    85.0204 N.pl3      1          -0.6239
      4 C3          9.9493   -11.9898    83.7005 C.3        1           0.1358
      5 C4         10.5354   -10.6389    83.2850 C.3        1          -0.1613
      6 C5         10.0760   -11.4861    86.0979 C.cat      1           0.7818
      7 N2          9.7547   -10.3509    86.7881 N.pl3      1          -0.6554
      8 C6         10.5587    -9.9434    87.9428 C.3        1           0.0934
      9 C7          9.9900    -8.6497    88.5293 C.3        1          -0.1375
     10 C8          8.5438    -8.8827    88.9715 C.3        1          -0.1177
     11 C9          7.9752    -7.5890    89.5578 C.3        1          -0.1208
     12 C10         6.5291    -7.8219    90.0000 C.3        1          -0.1226
     13 C11         5.9604    -6.5283    90.5864 C.3        1          -0.1172
     14 C12         4.5143    -6.7612    91.0285 C.3        1          -0.1412
     15 C13         3.9456    -5.4675    91.6150 C.3        1           0.0714
     16 N3          2.5609    -5.6906    92.0382 N.pl3      1          -0.5939
     17 H1          2.0114    -6.3424    91.5757 H          1           0.4491
     18 C14         2.0678    -5.0135    93.0357 C.cat      1           0.6761
     19 N4          2.8493    -4.0866    93.6936 N.pl3      1          -0.6818
     20 C15         3.6081    -4.4707    94.7799 C.cat      1           0.7506
     21 N5          4.3460    -3.5955    95.4011 N.pl3      1          -0.7504
     22 H2          4.3619    -2.6735    95.0999 H          1           0.4628
     23 H3          4.8795    -3.8655    96.1648 H          1           0.4416
     24 N6          3.5854    -5.7788    95.2071 N.pl3      1          -0.5847
     25 C16         4.7134    -6.3339    95.8213 C.ar       1           0.0806
     26 C17         4.5661    -7.3392    96.7680 C.ar       1          -0.1655
     27 C18         5.6812    -7.8858    97.3722 C.ar       1          -0.0671
     28 C19         6.9445    -7.4325    97.0352 C.ar       1          -0.0179
     29 Cl1         8.3441    -8.1217    97.7968 Cl         1          -0.0107
     30 C20         7.0941    -6.4311    96.0919 C.ar       1          -0.0644
     31 C21         5.9827    -5.8845    95.4811 C.ar       1          -0.0831
     32 N7          0.7686    -5.2229    93.4330 N.pl3      1          -0.5263
     33 C22        -0.0614    -6.2073    92.7344 C.3        1           0.0720
     34 C23         0.0942    -7.5736    93.4056 C.3        1          -0.1812
     35 C24         0.2140    -4.4613    94.5549 C.3        1           0.0729
     36 C25        -0.4236    -3.1729    94.0311 C.3        1          -0.1856
     37 N8         11.1103   -12.2151    86.4718 N.pl3      1          -0.5736
     38 H4         11.6380   -11.9495    87.2410 H          1           0.4382
     39 C26        11.4336   -13.3292    85.7844 C.2        1           0.5813
     40 N9         12.6109   -13.4312    85.2185 N.2        1          -0.7185
     41 N10        10.5236   -14.3630    85.6769 N.pl3      1          -0.6911
     42 C27         9.5951   -14.5869    86.6992 C.ar       1           0.1430
     43 C28         8.3544   -15.1368    86.4039 C.ar       1          -0.1461
     44 C29         7.4397   -15.3565    87.4149 C.ar       1          -0.0776
     45 C30         7.7583   -15.0293    88.7213 C.ar       1          -0.0386
     46 Cl2         6.6061   -15.3068    89.9897 Cl         1          -0.0425
     47 C31         8.9940   -14.4816    89.0183 C.ar       1          -0.0773
     48 C32         9.9144   -14.2647    88.0118 C.ar       1          -0.1173
     49 H5          6.0218   -11.4134    84.4246 H          1           0.0506
     50 H6          7.2858   -10.1714    84.5929 H          1           0.0819
     51 H7          7.3652   -11.3470    83.2587 H          1           0.0664
     52 H8          7.6169   -12.0055    86.2285 H          1           0.1013
     53 H9          7.6965   -13.1811    84.8942 H          1           0.0720
     54 H10        10.7451   -12.7335    83.7428 H          1           0.0679
     55 H11         9.2001   -12.3003    82.9724 H          1           0.1021
     56 H12        10.9993   -10.7308    82.3030 H          1           0.0779
     57 H13         9.7396    -9.8951    83.2426 H          1           0.0456
     58 H14        11.2845   -10.3284    84.0132 H          1           0.0665
     59 H15         8.9942    -9.8150    86.5131 H          1           0.4271
     60 H16        10.5318   -10.7278    88.6993 H          1           0.1058
     61 H17        11.5890    -9.7774    87.6280 H          1           0.0968
     62 H18        10.5882    -8.3464    89.3885 H          1           0.0794
     63 H19        10.0167    -7.8653    87.7729 H          1           0.0806
     64 H20         7.9456    -9.1858    88.1122 H          1           0.0730
     65 H21         8.5170    -9.6670    89.7278 H          1           0.0723
     66 H22         8.5735    -7.2858    90.4172 H          1           0.0664
     67 H23         8.0021    -6.8046    88.8016 H          1           0.0674
     68 H24         5.9308    -8.1250    89.1407 H          1           0.0703
     69 H25         6.5022    -8.6063    90.7563 H          1           0.0692
     70 H26         6.5587    -6.2250    91.4456 H          1           0.0716
     71 H27         5.9873    -5.7439    89.8301 H          1           0.0741
     72 H28         3.9161    -7.0643    90.1693 H          1           0.0908
     73 H29         4.4875    -7.5456    91.7848 H          1           0.0886
     74 H30         4.5439    -5.1642    92.4742 H          1           0.1051
     75 H31         3.9725    -4.6832    90.8586 H          1           0.1136
     76 H32         2.8653    -3.1648    93.3924 H          1           0.4697
     77 H33         2.7874    -6.3159    95.0822 H          1           0.4600
     78 H34         3.5803    -7.6932    97.0316 H          1           0.1395
     79 H35         5.5671    -8.6674    98.1088 H          1           0.1607
     80 H36         8.0812    -6.0791    95.8307 H          1           0.1646
     81 H37         6.1002    -5.1056    94.7422 H          1           0.1587
     82 H38        -1.1057    -5.8983    92.7773 H          1           0.1025
     83 H39         0.2548    -6.2759    91.6934 H          1           0.1165
     84 H40        -0.5234    -8.3060    92.8857 H          1           0.0841
     85 H41         1.1384    -7.8829    93.3624 H          1           0.1076
     86 H42        -0.2218    -7.5051    94.4464 H          1           0.0830
     87 H43        -0.5422    -5.0606    95.0623 H          1           0.1369
     88 H44         1.0114    -4.2134    95.2553 H          1           0.0879
     89 H45        -0.8362    -2.6063    94.8657 H          1           0.0625
     90 H46         0.3323    -2.5737    93.5236 H          1           0.0885
     91 H47        -1.2212    -3.4208    93.3307 H          1           0.1049
     92 H48        12.8458   -14.2353    84.7295 H          1           0.3717
     93 H49        10.5283   -14.9339    84.8926 H          1           0.4124
     94 H50         8.1052   -15.3919    85.3845 H          1           0.1374
     95 H51         6.4746   -15.7838    87.1859 H          1           0.1467
     96 H52         9.2402   -14.2274    90.0386 H          1           0.1482
     97 H53        10.8803   -13.8412    88.2447 H          1           0.1407
@<TRIPOS>BOND
     1    1    2 1
     2    1   49 1
     3    1   50 1
     4    1   51 1
     5    2    3 1
     6    2   52 1
     7    2   53 1
     8    3    4 1
     9    3    6 1
    10    4    5 1
    11    4   54 1
    12    4   55 1
    13    5   56 1
    14    5   57 1
    15    5   58 1
    16    6    7 1
    17    6   37 2
    18    7    8 1
    19    7   59 1
    20    8    9 1
    21    8   60 1
    22    8   61 1
    23    9   10 1
    24    9   62 1
    25    9   63 1
    26   10   11 1
    27   10   64 1
    28   10   65 1
    29   11   12 1
    30   11   66 1
    31   11   67 1
    32   12   13 1
    33   12   68 1
    34   12   69 1
    35   13   14 1
    36   13   70 1
    37   13   71 1
    38   14   15 1
    39   14   72 1
    40   14   73 1
    41   15   16 1
    42   15   74 1
    43   15   75 1
    44   16   17 1
    45   16   18 2
    46   18   19 1
    47   18   32 1
    48   19   20 1
    49   19   76 1
    50   20   21 2
    51   20   24 1
    52   21   22 1
    53   21   23 1
    54   24   25 1
    55   24   77 1
    56   25   31 ar
    57   25   26 ar
    58   26   27 ar
    59   26   78 1
    60   27   28 ar
    61   27   79 1
    62   28   29 1
    63   28   30 ar
    64   30   31 ar
    65   30   80 1
    66   31   81 1
    67   32   33 1
    68   32   35 1
    69   33   34 1
    70   33   82 1
    71   33   83 1
    72   34   84 1
    73   34   85 1
    74   34   86 1
    75   35   36 1
    76   35   87 1
    77   35   88 1
    78   36   89 1
    79   36   90 1
    80   36   91 1
    81   37   38 1
    82   37   39 1
    83   39   40 2
    84   39   41 1
    85   40   92 1
    86   41   42 1
    87   41   93 1
    88   42   48 ar
    89   42   43 ar
    90   43   44 ar
    91   43   94 1
    92   44   45 ar
    93   44   95 1
    94   45   46 1
    95   45   47 ar
    96   47   48 ar
    97   47   96 1
    98   48   97 1
##########                 Name:              T542052
##########          Protonation:                   81
##########               SMILES:   CC/[NH+]=C(/N(CC)CC)\NC(=[NH2+])NCc1cc(ccc1)Cl)/NC(=[NH2+])NCc2cc(ccc2)Cl)CC
##########            Long Name:   enyl)methylamino]methyl]amino]-(diethylamino)methylene]ammoniohexyl]ammonium
##########          FlexRecCode: 1
##########               Number:                  137
##########   Ligand Source File: /raidb/db2/rgc/tcams/tcams-0002179.db2.gz
##########           GlobalRank: 363
##########                 Rank:                    1
##########               Setnum:                  225
##########             Matchnum:                 4706
##########                Cloud:                    1
##########        Electrostatic:           -50.801247
##########        Van der Waals:           -26.518099
##########  Ligand Polar Desolv:            17.237928
########## Ligand Apolar Desolv:            -4.498886
##########      Internal Energy:             0.000000
##########      Receptor Energy: 0.0
########## Receptor Desolvation:             0.000000
########## Receptor Hydrophobic:             0.000000
##########         Total Energy: -64.58
##########        Ligand Charge:             4.000000
##########            Arbitrary:    +999.9990
##########     heavy atom count:   44
##########           pose count:    1
##########        Ligand Energy:             0.000000
# num electro vdwattr vdwrepu polsolv apolsol rdesolv rhydroe totalscore fullpol fullapo
#   1    4.25   -1.34    0.32   -4.02   -0.09    0.00    0.00      -0.88   -9.62   -0.21
#   2   -1.67   -0.99    0.16    1.82   -0.17    0.00    0.00      -0.84    4.53   -0.42
#   3   12.19   -0.79    0.03  -10.16    0.23    0.00    0.00       1.51  -33.12    0.76
#   4   -1.78   -1.00    0.23    2.32   -0.20    0.00    0.00      -0.43    5.11   -0.43
#   5    1.44   -1.54    0.93   -4.30   -0.08    0.00    0.00      -3.54  -10.07   -0.18
#   6  -10.20   -0.54    0.01    9.50   -0.82    0.00    0.00      -2.04   44.76   -3.86
#   7   11.15   -0.59    0.03   -8.33    0.18    0.00    0.00       2.43  -39.53    0.84
#   8  -18.56   -0.79    0.08   11.12   -0.91    0.00    0.00      -9.06   47.84   -3.91
#   9   33.03   -3.37    3.81  -14.76    0.21    0.00    0.00      18.91  -45.82    0.64
#  10  -21.56   -0.07    0.01   10.45    0.18    0.00    0.00     -11.00   28.55    0.49
#  11  -26.53   -0.18    0.09    8.04    0.09    0.00    0.00     -18.49   27.19    0.31
#  12   11.70   -0.60    0.03   -7.84    0.35    0.00    0.00       3.63  -38.33    1.72
#  13   -3.23   -0.57    0.06    2.05   -0.10    0.00    0.00      -1.78    7.96   -0.39
#  14    1.82   -0.91    0.09   -0.82   -0.10    0.00    0.00       0.07   -2.92   -0.37
#  15    1.04   -1.07    0.08   -0.86   -0.16    0.00    0.00      -0.97   -2.44   -0.45
#  16    0.74   -1.74    0.35   -1.91   -0.18    0.00    0.00      -2.75   -4.94   -0.47
#  17    0.28   -1.72    0.33   -1.88   -0.17    0.00    0.00      -3.17   -5.02   -0.46
#  18    0.15   -1.39    0.29   -0.96   -0.09    0.00    0.00      -2.00   -3.04   -0.30
#  19    0.19   -2.59    0.60   -1.38   -0.33    0.00    0.00      -3.51   -4.17   -0.99
#  20    0.59   -1.06    0.18   -0.86   -0.12    0.00    0.00      -1.28   -3.29   -0.45
#  21    4.40   -0.59    0.02   -8.66    0.40    0.00    0.00      -4.43  -34.47    1.58
#  22   -4.07   -0.01    0.00    6.07    0.08    0.00    0.00       2.07   27.19    0.37
#  23   -0.12   -0.26    0.01    0.58   -0.07    0.00    0.00       0.14    3.40   -0.40
#  24    0.08   -0.45    0.08   -1.56   -0.04    0.00    0.00      -1.89   -8.43   -0.22
#  25    0.07   -0.20    0.02   -0.84   -0.03    0.00    0.00      -0.98   -7.14   -0.22
#  26    0.02   -0.37    0.13   -0.93   -0.03    0.00    0.00      -1.19   -7.18   -0.22
#  27    0.07   -0.09    0.00   -0.55   -0.01    0.00    0.00      -0.59   -8.40   -0.22
#  28   -0.03   -0.09    0.00    0.24   -0.03    0.00    0.00       0.09    3.82   -0.41
#  29    0.30   -0.15    0.00   -2.40    0.11    0.00    0.00      -2.14  -34.82    1.60
#  30   -0.35    0.00    0.00    0.88    0.01    0.00    0.00       0.55   27.71    0.41
#  31   -0.73   -0.16    0.00    3.17   -0.26    0.00    0.00       2.03   44.38   -3.57
#  32    0.52   -0.20    0.01   -3.15    0.06    0.00    0.00      -2.75  -40.58    0.83
#  33   -0.45   -0.09    0.00    2.06   -0.15    0.00    0.00       1.37   47.89   -3.50
#  34    0.38   -0.09    0.00   -1.91    0.04    0.00    0.00      -1.58  -45.59    0.87
#  35   -0.28    0.00    0.00    0.86    0.01    0.00    0.00       0.59   28.93    0.48
#  36   -0.15    0.00    0.00    0.40    0.01    0.00    0.00       0.26   28.88    0.49
#  37    0.37   -0.05    0.00   -1.07    0.05    0.00    0.00      -0.71  -38.58    1.72
#  38   -0.05   -0.06    0.00    0.35   -0.02    0.00    0.00       0.22    8.04   -0.39
#  39    0.08   -0.20    0.01   -0.25   -0.03    0.00    0.00      -0.39   -2.89   -0.37
#  40    0.07   -0.23    0.01   -0.25   -0.05    0.00    0.00      -0.46   -2.48   -0.45
#  41    0.12   -0.45    0.03   -0.83   -0.08    0.00    0.00      -1.21   -4.93   -0.47
#  42    0.11   -0.86    0.14   -1.25   -0.12    0.00    0.00      -1.98   -4.99   -0.46
#  43    0.04   -0.69    0.10   -0.65   -0.06    0.00    0.00      -1.26   -3.01   -0.30
#  44    0.04   -1.94    0.57   -1.08   -0.26    0.00    0.00      -2.67   -4.10   -0.99
#  45    0.06   -0.34    0.04   -0.41   -0.06    0.00    0.00      -0.71   -3.19   -0.45
#  46    1.40   -0.17    0.00   -2.26    0.10    0.00    0.00      -0.93  -31.69    1.37
#  47   -0.38   -0.12    0.00    0.43   -0.03    0.00    0.00      -0.10    5.77   -0.46
#  48    0.77   -0.08    0.00   -0.45   -0.01    0.00    0.00       0.23   -8.89   -0.21
#  49   -0.15   -0.19    0.01    0.55   -0.05    0.00    0.00       0.16    4.90   -0.48
#  50    1.39   -0.84    0.26   -2.17   -0.05    0.00    0.00      -1.41   -9.80   -0.21
#  51   -2.56   -0.94    0.59    0.91   -0.13    0.00    0.00      -2.14    2.01   -0.28
#  52   -1.56   -0.34    0.09    0.23   -0.07    0.00    0.00      -1.66    0.87   -0.28
#  53   -1.42   -0.30    0.04    1.53   -0.07    0.00    0.00      -0.22    5.03   -0.23
#  54   -3.93   -0.27    0.02    1.49   -0.06    0.00    0.00      -2.74    5.59   -0.21
#  55   -2.76   -0.52    0.24    3.99   -0.11    0.00    0.00       0.83    9.93   -0.27
#  56   -2.72   -0.44    0.17    3.37   -0.09    0.00    0.00       0.29    8.09   -0.21
#  57   -3.68   -0.47    0.30    1.31   -0.11    0.00    0.00      -2.65    3.39   -0.28
#  58   -0.61   -0.90    0.74    0.96   -0.14    0.00    0.00       0.04    1.89   -0.28
#  59    0.31   -0.80    1.75    0.66   -0.06    0.00    0.00       1.86    2.41   -0.21
#  60   -0.53   -0.29    0.06    1.58   -0.04    0.00    0.00       0.77    6.34   -0.18
#  61   -6.38   -0.01    0.00    4.65    0.08    0.00    0.00      -1.66   32.24    0.54
#  62   -3.69   -0.01    0.00    3.29    0.07    0.00    0.00      -0.34   26.96    0.57
#  63   -3.28   -0.19    0.03    1.54   -0.05    0.00    0.00      -1.95    8.45   -0.28
#  64   -3.87   -0.25    0.05    2.15   -0.06    0.00    0.00      -1.98   10.39   -0.27
#  65   -2.17   -0.20    0.01    2.08   -0.06    0.00    0.00      -0.33   10.31   -0.28
#  66   -1.30   -0.59    0.30    1.39   -0.09    0.00    0.00      -0.30    4.12   -0.28
#  67   -0.55   -0.40    0.09    0.43   -0.09    0.00    0.00      -0.52    1.32   -0.28
#  68   -1.10   -0.13    0.01    0.92   -0.04    0.00    0.00      -0.33    7.01   -0.28
#  69   -0.21   -0.07    0.00    0.64   -0.02    0.00    0.00       0.35    9.29   -0.26
#  70   -0.35   -0.05    0.00    0.54   -0.01    0.00    0.00       0.12   10.27   -0.28
#  71   -0.13   -0.13    0.02    0.57   -0.03    0.00    0.00       0.30    5.04   -0.28
#  72   -0.02   -0.37    0.20    0.87   -0.07    0.00    0.00       0.62    3.75   -0.28
#  73   -0.06   -0.04    0.00    0.16   -0.01    0.00    0.00       0.05    3.43   -0.28
#  74   -0.10   -0.03    0.00    0.14   -0.01    0.00    0.00       0.01    4.55   -0.28
#  75   -0.01   -0.10    0.02    0.39   -0.02    0.00    0.00       0.28    4.49   -0.28
#  76    0.01   -0.39    0.54    0.51   -0.04    0.00    0.00       0.63    3.26   -0.28
#  77   -0.05   -0.02    0.00    0.08   -0.01    0.00    0.00       0.01    3.73   -0.28
#  78   -0.06   -0.01    0.00    0.11   -0.01    0.00    0.00       0.03    5.28   -0.28
#  79   -0.03   -0.05    0.00    0.49   -0.01    0.00    0.00       0.41   10.32   -0.28
#  80   -0.06   -0.01    0.00    0.15    0.00    0.00    0.00       0.07    8.68   -0.27
#  81   -0.48   -0.01    0.00    2.32    0.04    0.00    0.00       1.88   31.90    0.57
#  82   -0.32    0.00    0.00    0.44    0.01    0.00    0.00       0.13   26.43    0.58
#  83   -0.03   -0.01    0.00    0.15    0.00    0.00    0.00       0.09    8.88   -0.27
#  84   -0.03   -0.02    0.00    0.20   -0.01    0.00    0.00       0.14   10.35   -0.27
#  85   -0.08   -0.03    0.00    0.23   -0.01    0.00    0.00       0.12   10.08   -0.28
#  86   -0.20   -0.07    0.00    0.27   -0.02    0.00    0.00      -0.02    3.86   -0.28
#  87   -0.31   -0.33    0.13    0.30   -0.07    0.00    0.00      -0.28    1.19   -0.28
#  88   -0.08   -0.04    0.00    0.38   -0.01    0.00    0.00       0.25    7.26   -0.28
#  89   -0.66   -0.04    0.00    0.17   -0.01    0.00    0.00      -0.53    5.16   -0.28
#  90   -0.42   -0.06    0.00    0.42   -0.01    0.00    0.00      -0.06    7.80   -0.19
#  91   -0.62   -0.03    0.00    0.04   -0.01    0.00    0.00      -0.62    1.23   -0.28
#  92   -0.25   -0.02    0.00    0.03   -0.01    0.00    0.00      -0.24    1.23   -0.28
#  93   -0.21   -0.02    0.00    0.10   -0.01    0.00    0.00      -0.13    4.26   -0.28
#  94   -0.14   -0.04    0.00    0.13   -0.01    0.00    0.00      -0.05    3.66   -0.28
#  95   -0.11   -0.04    0.00    0.27   -0.01    0.00    0.00       0.12    8.15   -0.21
#  96   -0.24   -0.41    0.18    1.70   -0.07    0.00    0.00       1.17    6.87   -0.27
#  97   -0.57   -0.20    0.03    0.48   -0.05    0.00    0.00      -0.31    2.73   -0.28
#  98   -1.77   -0.59    0.86    0.33   -0.06    0.00    0.00      -1.23    1.54   -0.28

@<TRIPOS>MOLECULE
          T542052        81
   98    99     0     0     0



@<TRIPOS>ATOM
      1 C1          0.8146    -3.8134    93.9909 C.3        1          -0.1850
      2 C2          1.7893    -4.6368    94.8352 C.3        1           0.0662
      3 N1          1.5177    -6.0635    94.6422 N.pl3      1          -0.5726
      4 C3          1.1433    -6.8992    95.7856 C.3        1           0.0768
      5 C4          2.1700    -8.0208    95.9554 C.3        1          -0.1905
      6 C5          1.6145    -6.6179    93.3880 C.cat      1           0.7096
      7 N2          2.5027    -6.0967    92.4702 N.pl3      1          -0.6642
      8 C6          3.8526    -6.0733    92.7531 C.cat      1           0.7385
      9 N3          4.6063    -5.1355    92.2542 N.pl3      1          -0.7553
     10 H1          4.2185    -4.4536    91.6837 H          1           0.4596
     11 H2          5.5556    -5.1190    92.4530 H          1           0.4397
     12 N4          4.4022    -7.0397    93.5615 N.pl3      1          -0.6402
     13 C7          5.8358    -7.0149    93.8620 C.3        1           0.1341
     14 C8          6.1807    -8.1736    94.7617 C.ar       1          -0.1434
     15 C9          6.1201    -8.0243    96.1349 C.ar       1          -0.0873
     16 C10         6.4358    -9.0869    96.9608 C.ar       1          -0.1008
     17 C11         6.8127   -10.2993    96.4141 C.ar       1          -0.0703
     18 C12         6.8735   -10.4492    95.0403 C.ar       1          -0.0375
     19 Cl1         7.3462   -11.9717    94.3530 Cl         1          -0.0323
     20 C13         6.5518    -9.3868    94.2140 C.ar       1          -0.0819
     21 N5          0.8679    -7.6354    93.0662 N.pl3      1          -0.5938
     22 H3          0.2433    -8.0019    93.7116 H          1           0.4510
     23 C14         0.9710    -8.2262    91.7297 C.3        1           0.0650
     24 C15         2.0284    -9.3322    91.7414 C.3        1          -0.1416
     25 C16         2.1362    -9.9492    90.3454 C.3        1          -0.1189
     26 C17         3.1934   -11.0552    90.3570 C.3        1          -0.1189
     27 C18         3.3012   -11.6723    88.9611 C.3        1          -0.1415
     28 C19         4.3584   -12.7781    88.9726 C.3        1           0.0711
     29 N6          5.6535   -12.2118    89.3576 N.pl3      1          -0.6042
     30 H4          5.7292   -11.2653    89.5563 H          1           0.4487
     31 C20         6.7033   -12.9791    89.4330 C.cat      1           0.7018
     32 N7          6.5956   -14.3249    89.1503 N.pl3      1          -0.6775
     33 C21         6.7863   -14.7761    87.8607 C.cat      1           0.7397
     34 N8          6.6847   -16.0469    87.5937 N.pl3      1          -0.7495
     35 H5          6.4748   -16.6759    88.3016 H          1           0.4600
     36 H6          6.8188   -16.3641    86.6869 H          1           0.4396
     37 N9          7.0837   -13.8844    86.8575 N.pl3      1          -0.6389
     38 C22         7.2862   -14.3637    85.4880 C.3        1           0.1330
     39 C23         7.5971   -13.1956    84.5879 C.ar       1          -0.1444
     40 C24         8.9086   -12.8036    84.3924 C.ar       1          -0.0867
     41 C25         9.1947   -11.7328    83.5668 C.ar       1          -0.1001
     42 C26         8.1696   -11.0526    82.9363 C.ar       1          -0.0698
     43 C27         6.8574   -11.4442    83.1315 C.ar       1          -0.0374
     44 Cl2         5.5694   -10.5910    82.3397 Cl         1          -0.0325
     45 C28         6.5719   -12.5201    83.9537 C.ar       1          -0.0826
     46 N10         7.9185   -12.4478    89.7942 N.pl3      1          -0.5449
     47 C29         8.0328   -11.0184    90.0942 C.3        1           0.0849
     48 C30         8.3678   -10.2534    88.8122 C.3        1          -0.1798
     49 C31         9.0993   -13.3107    89.8790 C.3        1           0.0785
     50 C32         9.2154   -13.8787    91.2948 C.3        1          -0.1851
     51 H7          1.0166    -2.7519    94.1345 H          1           0.1073
     52 H8          0.9406    -4.0681    92.9386 H          1           0.0875
     53 H9         -0.2078    -4.0335    94.2981 H          1           0.0566
     54 H10         2.8116    -4.4168    94.5278 H          1           0.1396
     55 H11         1.6633    -4.3821    95.8875 H          1           0.1050
     56 H12         1.1188    -6.2894    96.6888 H          1           0.0916
     57 H13         0.1580    -7.3319    95.6124 H          1           0.1298
     58 H14         1.8913    -8.6427    96.8061 H          1           0.1128
     59 H15         2.1946    -8.6307    95.0523 H          1           0.0929
     60 H16         3.1553    -7.5883    96.1287 H          1           0.0603
     61 H17         2.1779    -5.7465    91.6260 H          1           0.4673
     62 H18         3.8408    -7.7381    93.9331 H          1           0.4458
     63 H19         6.4029    -7.0937    92.9346 H          1           0.1194
     64 H20         6.0860    -6.0794    94.3625 H          1           0.1179
     65 H21         5.8263    -7.0772    96.5625 H          1           0.1341
     66 H22         6.3882    -8.9697    98.0333 H          1           0.1472
     67 H23         7.0601   -11.1292    97.0594 H          1           0.1500
     68 H24         6.5952    -9.5045    93.1412 H          1           0.1401
     69 H25         0.0076    -8.6476    91.4432 H          1           0.1146
     70 H26         1.2584    -7.4564    91.0134 H          1           0.1144
     71 H27         2.9919    -8.9107    92.0278 H          1           0.0900
     72 H28         1.7410   -10.1019    92.4575 H          1           0.0919
     73 H29         1.1726   -10.3706    90.0589 H          1           0.0801
     74 H30         2.4236    -9.1794    89.6291 H          1           0.0782
     75 H31         4.1569   -10.6338    90.6434 H          1           0.0777
     76 H32         2.9060   -11.8249    91.0733 H          1           0.0798
     77 H33         2.3377   -12.0936    88.6746 H          1           0.0914
     78 H34         3.5885   -10.9024    88.2448 H          1           0.0896
     79 H35         4.0711   -13.5479    89.6888 H          1           0.1106
     80 H36         4.4352   -13.2177    87.9781 H          1           0.1121
     81 H37         6.3858   -14.9541    89.8582 H          1           0.4685
     82 H38         7.1594   -12.9381    87.0564 H          1           0.4471
     83 H39         8.1174   -15.0684    85.4688 H          1           0.1178
     84 H40         6.3808   -14.8602    85.1392 H          1           0.1196
     85 H41         9.7097   -13.3343    84.8854 H          1           0.1343
     86 H42        10.2192   -11.4270    83.4145 H          1           0.1477
     87 H43         8.3931   -10.2154    82.2918 H          1           0.1503
     88 H44         5.5479   -12.8288    84.1033 H          1           0.1393
     89 H45         7.0877   -10.6550    90.4976 H          1           0.1324
     90 H46         8.8244   -10.8631    90.8272 H          1           0.0799
     91 H47         8.4528    -9.1899    89.0354 H          1           0.0839
     92 H48         9.3129   -10.6167    88.4087 H          1           0.1047
     93 H49         7.5762   -10.4086    88.0791 H          1           0.0641
     94 H50         9.0031   -14.1294    89.1657 H          1           0.1385
     95 H51         9.9917   -12.7295    89.6464 H          1           0.0961
     96 H52        10.0939   -14.5208    91.3579 H          1           0.0572
     97 H53         9.3118   -13.0599    92.0079 H          1           0.0834
     98 H54         8.3231   -14.4600    91.5274 H          1           0.1109
@<TRIPOS>BOND
     1    1    2 1
     2    1   51 1
     3    1   52 1
     4    1   53 1
     5    2    3 1
     6    2   54 1
     7    2   55 1
     8    3    4 1
     9    3    6 1
    10    4    5 1
    11    4   56 1
    12    4   57 1
    13    5   58 1
    14    5   59 1
    15    5   60 1
    16    6    7 1
    17    6   21 2
    18    7    8 1
    19    7   61 1
    20    8    9 2
    21    8   12 1
    22    9   10 1
    23    9   11 1
    24   12   13 1
    25   12   62 1
    26   13   14 1
    27   13   63 1
    28   13   64 1
    29   14   20 ar
    30   14   15 ar
    31   15   16 ar
    32   15   65 1
    33   16   17 ar
    34   16   66 1
    35   17   18 ar
    36   17   67 1
    37   18   19 1
    38   18   20 ar
    39   20   68 1
    40   21   22 1
    41   21   23 1
    42   23   24 1
    43   23   69 1
    44   23   70 1
    45   24   25 1
    46   24   71 1
    47   24   72 1
    48   25   26 1
    49   25   73 1
    50   25   74 1
    51   26   27 1
    52   26   75 1
    53   26   76 1
    54   27   28 1
    55   27   77 1
    56   27   78 1
    57   28   29 1
    58   28   79 1
    59   28   80 1
    60   29   30 1
    61   29   31 2
    62   31   32 1
    63   31   46 1
    64   32   33 1
    65   32   81 1
    66   33   34 2
    67   33   37 1
    68   34   35 1
    69   34   36 1
    70   37   38 1
    71   37   82 1
    72   38   39 1
    73   38   83 1
    74   38   84 1
    75   39   45 ar
    76   39   40 ar
    77   40   41 ar
    78   40   85 1
    79   41   42 ar
    80   41   86 1
    81   42   43 ar
    82   42   87 1
    83   43   44 1
    84   43   45 ar
    85   45   88 1
    86   46   47 1
    87   46   49 1
    88   47   48 1
    89   47   89 1
    90   47   90 1
    91   48   91 1
    92   48   92 1
    93   48   93 1
    94   49   50 1
    95   49   94 1
    96   49   95 1
    97   50   96 1
    98   50   97 1
    99   50   98 1
##########                 Name:              T539833
##########          Protonation:                   23
##########               SMILES:   c1ccc2c(c1)c3cc(ccc3n2C[C@@H](C[NH+]4CCN(CC4)C5CCCCC5)O)Br
##########            Long Name:   2S)-1-(3-bromocarbazol-9-yl)-3-(4-cyclohexylpiperazin-1-ium-1-yl)propan-2-ol
##########          FlexRecCode: 1
##########               Number:                   20
##########   Ligand Source File: /raidb/db2/rgc/tcams/tcams-0001938.db2.gz
##########           GlobalRank: 364
##########                 Rank:                    1
##########               Setnum:                   41
##########             Matchnum:                 3447
##########                Cloud:                    1
##########        Electrostatic:           -31.234537
##########        Van der Waals:           -32.790447
##########  Ligand Polar Desolv:             3.348970
########## Ligand Apolar Desolv:            -3.890546
##########      Internal Energy:             0.000000
##########      Receptor Energy: 0.0
########## Receptor Desolvation:             0.000000
########## Receptor Hydrophobic:             0.000000
##########         Total Energy: -64.57
##########        Ligand Charge:             1.000000
##########            Arbitrary:    +999.9990
##########     heavy atom count:   30
##########           pose count:    1
##########        Ligand Energy:             0.000000
# num electro vdwattr vdwrepu polsolv apolsol rdesolv rhydroe totalscore fullpol fullapo
#   1    6.31   -0.87    0.11   -4.85    0.49    0.00    0.00       1.18  -15.63    1.59
#   2   -1.43   -0.52    0.02    0.60   -0.03    0.00    0.00      -1.36    2.18   -0.12
#   3   -2.64   -0.79    0.13    0.45   -0.14    0.00    0.00      -2.98    1.34   -0.42
#   4    8.90   -0.95    0.10   -2.21    0.31    0.00    0.00       6.16   -8.04    1.14
#   5   -1.95   -0.74    0.08    0.42   -0.17    0.00    0.00      -2.37    1.76   -0.73
#   6    2.60   -0.52    0.03   -0.36   -0.09    0.00    0.00       1.67   -1.79   -0.46
#   7    0.83   -0.27    0.01   -0.14   -0.06    0.00    0.00       0.37   -1.18   -0.47
#   8    0.84   -0.27    0.01   -0.16   -0.05    0.00    0.00       0.36   -1.41   -0.47
#   9    0.32   -0.55    0.05   -0.13   -0.09    0.00    0.00      -0.39   -0.74   -0.48
#  10    0.73   -0.85    0.13   -0.29   -0.10    0.00    0.00      -0.38   -1.27   -0.44
#  11    0.68   -1.16    0.21   -0.33   -0.13    0.00    0.00      -0.74   -1.17   -0.44
#  12    0.16   -1.17    0.12   -0.15   -0.16    0.00    0.00      -1.20   -0.43   -0.46
#  13    0.81   -1.40    0.18   -0.36   -0.12    0.00    0.00      -0.89   -0.89   -0.30
#  14    0.26   -5.61    2.04   -0.27   -0.63    0.00    0.00      -4.20   -0.46   -1.09
#  15    0.51   -1.68    0.38   -0.34   -0.19    0.00    0.00      -1.32   -0.84   -0.46
#  16    1.60   -1.24    0.11   -0.52   -0.17    0.00    0.00      -0.22   -1.39   -0.46
#  17   -1.83   -1.14    0.17    0.66   -0.22    0.00    0.00      -2.37    2.14   -0.70
#  18    0.95   -0.42    0.02   -0.13   -0.07    0.00    0.00       0.35   -0.57   -0.33
#  19    7.83   -0.55    0.02   -3.09    0.07    0.00    0.00       4.28  -12.27    0.28
#  20   -8.56   -0.01    0.00    1.52    0.05    0.00    0.00      -7.00   14.83    0.51
#  21    0.02   -0.35    0.01    0.17   -0.08    0.00    0.00      -0.23    0.86   -0.39
#  22   -0.34   -0.50    0.03    0.02   -0.11    0.00    0.00      -0.89    0.07   -0.39
#  23    9.30   -1.47    0.33   -4.47    1.13    0.00    0.00       4.82  -12.01    3.03
#  24   -0.51   -1.45    0.40    0.12   -0.16    0.00    0.00      -1.61    0.28   -0.39
#  25    0.15   -1.13    0.29    0.19   -0.14    0.00    0.00      -0.63    0.51   -0.37
#  26   -1.92   -0.93    0.07    0.82   -0.09    0.00    0.00      -2.04    1.75   -0.19
#  27    2.63   -1.98    0.56   -0.85   -0.12    0.00    0.00       0.24   -1.51   -0.21
#  28    2.84   -1.94    0.38   -0.94   -0.16    0.00    0.00       0.18   -1.43   -0.25
#  29    2.98   -2.24    0.78   -0.84   -0.17    0.00    0.00       0.51   -1.23   -0.25
#  30    2.97   -1.76    0.40   -0.83   -0.15    0.00    0.00       0.63   -1.37   -0.25
#  31    3.00   -1.35    0.28   -0.74   -0.10    0.00    0.00       1.09   -1.51   -0.21
#  32   -4.71   -0.02    0.00    3.11    0.30    0.00    0.00      -1.32   12.42    1.18
#  33   -3.60   -0.21    0.01    0.61   -0.04    0.00    0.00      -3.23    3.11   -0.21
#  34   -4.54   -0.67    1.20    1.06   -0.07    0.00    0.00      -3.02    4.09   -0.27
#  35   -3.08   -0.26    0.02    1.35   -0.09    0.00    0.00      -2.06    4.19   -0.27
#  36   -3.24   -0.16    0.03    0.61   -0.04    0.00    0.00      -2.80    4.46   -0.28
#  37   -1.37   -0.03    0.00    0.09   -0.01    0.00    0.00      -1.32    2.48   -0.28
#  38   -0.50   -0.03    0.00    0.03   -0.01    0.00    0.00      -0.51    0.99   -0.28
#  39   -0.71   -0.10    0.01    0.02   -0.02    0.00    0.00      -0.81    0.22   -0.28
#  40   -1.00   -0.21    0.01    0.02   -0.06    0.00    0.00      -1.24    0.08   -0.28
#  41   -1.73   -0.52    0.34    0.63   -0.09    0.00    0.00      -1.38    1.96   -0.28
#  42   -1.88   -0.23    0.01    1.17   -0.07    0.00    0.00      -0.99    4.81   -0.27
#  43   -4.65   -0.22    0.04    1.25   -0.05    0.00    0.00      -3.62    7.11   -0.28
#  44   -1.79   -0.09    0.00    0.68   -0.02    0.00    0.00      -1.23    7.75   -0.28
#  45   -1.67   -0.12    0.01    0.62   -0.03    0.00    0.00      -1.20    5.19   -0.28
#  46   -1.09   -0.08    0.00    0.45   -0.02    0.00    0.00      -0.73    6.80   -0.28
#  47   -1.43   -0.14    0.01    0.29   -0.03    0.00    0.00      -1.29    2.34   -0.22
#  48   -1.35   -0.19    0.02    0.30   -0.06    0.00    0.00      -1.27    1.51   -0.28
#  49   -3.00   -0.98    0.63    0.87   -0.10    0.00    0.00      -2.60    1.85   -0.22
#  50   -1.54   -0.41    0.14    0.38   -0.09    0.00    0.00      -1.51    1.19   -0.28
#  51   -4.22   -0.38    0.06    1.49   -0.08    0.00    0.00      -3.13    4.27   -0.23
#  52   -4.01   -0.68    0.73    1.79   -0.10    0.00    0.00      -2.26    5.18   -0.28
#  53   -1.05   -0.27    0.03    0.13   -0.08    0.00    0.00      -1.23    0.49   -0.28
#  54   -1.84   -1.29    1.60    0.42   -0.14    0.00    0.00      -1.25    0.86   -0.28
#  55   -1.41   -0.86    0.38    0.80   -0.11    0.00    0.00      -1.20    1.53   -0.21
#  56   -1.66   -1.09    0.60    0.28   -0.17    0.00    0.00      -2.03    0.46   -0.28
#  57   -1.48   -0.57    0.17    0.30   -0.15    0.00    0.00      -1.74    0.54   -0.28
#  58   -1.59   -1.49    2.04    0.28   -0.17    0.00    0.00      -0.92    0.48   -0.28
#  59   -1.62   -0.91    0.45    0.10   -0.17    0.00    0.00      -2.16    0.16   -0.28
#  60   -1.80   -1.06    1.12    0.23   -0.17    0.00    0.00      -1.67    0.38   -0.28
#  61   -1.53   -0.57    0.20    0.22   -0.12    0.00    0.00      -1.81    0.49   -0.28
#  62   -2.08   -0.64    0.55    0.46   -0.08    0.00    0.00      -1.79    1.28   -0.22
#  63   -2.12   -0.53    0.15    0.34   -0.12    0.00    0.00      -2.28    0.83   -0.28

@<TRIPOS>MOLECULE
          T539833        23
   63    67     0     0     0



@<TRIPOS>ATOM
      1 O1          4.2129    -7.3593    95.6460 O.3        1          -0.5411
      2 C1          4.6007    -6.2723    94.8032 C.3        1           0.0611
      3 C2          6.1013    -6.3590    94.5172 C.3        1           0.0908
      4 N1          6.4771    -7.7582    94.3009 N.pl3      1          -0.5018
      5 C3          6.4807    -8.3954    93.0729 C.ar       1           0.1347
      6 C4          6.1639    -7.9589    91.7899 C.ar       1          -0.1479
      7 C5          6.2591    -8.8261    90.7231 C.ar       1          -0.0772
      8 C6          6.6690   -10.1368    90.9139 C.ar       1          -0.1407
      9 C7          6.9866   -10.5877    92.1769 C.ar       1          -0.0562
     10 C8          6.8956    -9.7215    93.2640 C.ar       1          -0.0956
     11 C9          7.1545    -9.8753    94.7073 C.ar       1          -0.0968
     12 C10         7.5826   -10.9411    95.4955 C.ar       1          -0.0267
     13 C11         7.7346   -10.7694    96.8553 C.ar       1          -0.1185
     14 Br1         8.3161   -12.2138    97.9283 Br         1          -0.0365
     15 C12         7.4628    -9.5403    97.4385 C.ar       1          -0.0531
     16 C13         7.0388    -8.4782    96.6696 C.ar       1          -0.1342
     17 C14         6.8851    -8.6305    95.2948 C.ar       1           0.1605
     18 C15         3.8254    -6.3463    93.4863 C.3        1          -0.0430
     19 N2          2.4765    -5.7979    93.6807 N.4        1          -0.3812
     20 H1          2.1187    -6.0949    94.5762 H          1           0.4253
     21 C16         1.5918    -6.2850    92.6142 C.3        1          -0.0013
     22 C17         0.1821    -5.7290    92.8270 C.3        1           0.0212
     23 N3          0.2308    -4.2601    92.8139 N.3        1          -0.5350
     24 C18         1.1324    -3.7584    93.8606 C.3        1           0.0225
     25 C19         2.5342    -4.3307    93.6390 C.3        1          -0.0056
     26 C20        -1.1142    -3.6875    92.9589 C.3        1           0.0878
     27 C21        -1.0231    -2.1604    92.9408 C.3        1          -0.1135
     28 C22        -2.4239    -1.5640    93.0917 C.3        1          -0.1211
     29 C23        -3.0335    -2.0229    94.4179 C.3        1          -0.1245
     30 C24        -3.1247    -3.5501    94.4359 C.3        1          -0.1209
     31 C25        -1.7238    -4.1464    94.2851 C.3        1          -0.1154
     32 H2          4.6657    -7.3756    96.5003 H          1           0.3867
     33 H3          4.3798    -5.3288    95.3023 H          1           0.1288
     34 H4          6.3352    -5.7778    93.6252 H          1           0.1026
     35 H5          6.6565    -5.9606    95.3662 H          1           0.1077
     36 H6          5.8430    -6.9401    91.6303 H          1           0.1192
     37 H7          6.0120    -8.4818    89.7297 H          1           0.1329
     38 H8          6.7393   -10.8069    90.0699 H          1           0.1331
     39 H9          7.3049   -11.6093    92.3232 H          1           0.1309
     40 H10         7.7943   -11.8987    95.0433 H          1           0.1385
     41 H11         7.5844    -9.4149    98.5043 H          1           0.1408
     42 H12         6.8296    -7.5257    97.1337 H          1           0.1247
     43 H13         4.3469    -5.7668    92.7245 H          1           0.1444
     44 H14         3.7523    -7.3855    93.1657 H          1           0.1385
     45 H15         1.9711    -5.9534    91.6477 H          1           0.1385
     46 H16         1.5601    -7.3743    92.6377 H          1           0.1350
     47 H17        -0.4711    -6.0783    92.0274 H          1           0.1276
     48 H18        -0.2029    -6.0717    93.7874 H          1           0.0602
     49 H19         1.1725    -2.6702    93.8151 H          1           0.1278
     50 H20         0.7630    -4.0686    94.8381 H          1           0.0608
     51 H21         3.2013    -3.9710    94.4224 H          1           0.1335
     52 H22         2.9086    -4.0093    92.6672 H          1           0.1386
     53 H23        -1.7430    -4.0237    92.1344 H          1           0.0526
     54 H24        -0.3943    -1.8242    93.7653 H          1           0.0764
     55 H25        -0.5889    -1.8335    91.9960 H          1           0.0621
     56 H26        -2.3591    -0.4760    93.0788 H          1           0.0712
     57 H27        -3.0527    -1.9002    92.2673 H          1           0.0630
     58 H28        -2.4048    -1.6867    95.2424 H          1           0.0659
     59 H29        -4.0315    -1.5981    94.5254 H          1           0.0683
     60 H30        -3.5589    -3.8770    95.3807 H          1           0.0713
     61 H31        -3.7535    -3.8864    93.6115 H          1           0.0631
     62 H32        -1.7887    -5.2344    94.2979 H          1           0.0627
     63 H33        -1.0951    -3.8103    95.1095 H          1           0.0766
@<TRIPOS>BOND
     1    1    2 1
     2    1   32 1
     3    2    3 1
     4    2   18 1
     5    2   33 1
     6    3    4 1
     7    3   34 1
     8    3   35 1
     9    4   17 1
    10    4    5 1
    11    5   10 ar
    12    5    6 ar
    13    6    7 ar
    14    6   36 1
    15    7    8 ar
    16    7   37 1
    17    8    9 ar
    18    8   38 1
    19    9   10 ar
    20    9   39 1
    21   10   11 1
    22   11   17 ar
    23   11   12 ar
    24   12   13 ar
    25   12   40 1
    26   13   14 1
    27   13   15 ar
    28   15   16 ar
    29   15   41 1
    30   16   17 ar
    31   16   42 1
    32   18   19 1
    33   18   43 1
    34   18   44 1
    35   19   20 1
    36   19   25 1
    37   19   21 1
    38   21   22 1
    39   21   45 1
    40   21   46 1
    41   22   23 1
    42   22   47 1
    43   22   48 1
    44   23   24 1
    45   23   26 1
    46   24   25 1
    47   24   49 1
    48   24   50 1
    49   25   51 1
    50   25   52 1
    51   26   31 1
    52   26   27 1
    53   26   53 1
    54   27   28 1
    55   27   54 1
    56   27   55 1
    57   28   29 1
    58   28   56 1
    59   28   57 1
    60   29   30 1
    61   29   58 1
    62   29   59 1
    63   30   31 1
    64   30   60 1
    65   30   61 1
    66   31   62 1
    67   31   63 1
##########                 Name:              T542266
##########          Protonation:                   90
##########               SMILES:   c1cc(c(cc1/C=C/C(=O)NCCCC[NH+]2CCCN(CC2)C(=O)Nc3ccc(c(c3)Cl)F)Cl)Cl
##########            Long Name:   ,4-dichlorophenyl)prop-2-enoyl]amino]butyl]-1,4-diazepan-4-ium-1-carboxamide
##########          FlexRecCode: 1
##########               Number:                   43
##########   Ligand Source File: /raidb/db2/rgc/tcams/tcams-0002214.db2.gz
##########           GlobalRank: 365
##########                 Rank:                    1
##########               Setnum:                  283
##########             Matchnum:                  126
##########                Cloud:                    1
##########        Electrostatic:           -39.402882
##########        Van der Waals:           -29.673378
##########  Ligand Polar Desolv:             9.266050
########## Ligand Apolar Desolv:            -4.746397
##########      Internal Energy:             0.000000
##########      Receptor Energy: 0.0
########## Receptor Desolvation:             0.000000
########## Receptor Hydrophobic:             0.000000
##########         Total Energy: -64.56
##########        Ligand Charge:             1.000000
##########            Arbitrary:    +999.9990
##########     heavy atom count:   35
##########           pose count:    1
##########        Ligand Energy:             0.000000
# num electro vdwattr vdwrepu polsolv apolsol rdesolv rhydroe totalscore fullpol fullapo
#   1    0.52   -1.93    1.00   -0.23   -0.28    0.00    0.00      -0.92   -0.38   -0.47
#   2   -0.86   -2.03    0.47   -0.01   -0.19    0.00    0.00      -2.62   -0.01   -0.34
#   3    1.44   -2.07    0.79   -0.59   -0.24    0.00    0.00      -0.68   -1.14   -0.47
#   4    1.18   -1.63    0.34   -0.52   -0.20    0.00    0.00      -0.83   -1.18   -0.46
#   5   -0.93   -1.44    0.19    0.86   -0.25    0.00    0.00      -1.57    2.31   -0.68
#   6    3.31   -1.44    0.28   -3.93    0.57    0.00    0.00      -1.21  -11.46    1.67
#   7   -5.34   -1.40    0.28    4.00   -0.70    0.00    0.00      -3.17   11.55   -2.02
#   8    4.03   -2.13    0.58   -3.10    0.14    0.00    0.00      -0.47   -7.08    0.32
#   9    9.15   -0.85    0.05   -4.15    0.43    0.00    0.00       4.63  -14.03    1.44
#  10   -1.98   -0.66    0.04    0.72   -0.16    0.00    0.00      -2.04    2.09   -0.46
#  11    5.21   -1.08    0.16   -1.99   -0.11    0.00    0.00       2.19   -4.47   -0.24
#  12    0.47   -1.19    0.38   -0.14   -0.14    0.00    0.00      -0.63   -0.35   -0.36
#  13   14.49   -1.93    2.19   -3.35    0.05    0.00    0.00      11.46  -11.58    0.18
#  14  -24.16   -0.17    0.08    4.76    0.13    0.00    0.00     -19.35   16.81    0.45
#  15    0.65   -1.46    0.75    0.04   -0.11    0.00    0.00      -0.14    0.12   -0.34
#  16    4.54   -1.22    0.53   -1.25   -0.06    0.00    0.00       2.54   -4.28   -0.20
#  17    1.52   -1.10    0.29   -0.92   -0.07    0.00    0.00      -0.28   -2.96   -0.22
#  18   -0.38   -0.50    0.06    0.41   -0.09    0.00    0.00      -0.51    1.80   -0.42
#  19    3.20   -0.24    0.00   -1.10    0.24    0.00    0.00       2.10  -10.78    2.33
#  20   -1.99   -0.21    0.00    0.45   -0.05    0.00    0.00      -1.80    5.31   -0.65
#  21    2.49   -0.24    0.00   -0.35    0.04    0.00    0.00       1.94   -3.08    0.39
#  22    0.10   -0.28    0.02   -0.22   -0.04    0.00    0.00      -0.41   -2.15   -0.43
#  23    0.00   -0.61    0.15   -0.07   -0.07    0.00    0.00      -0.59   -0.41   -0.44
#  24    0.01   -1.29    1.11   -0.09   -0.08    0.00    0.00      -0.34   -0.45   -0.41
#  25    0.02   -1.31    0.77   -0.16   -0.10    0.00    0.00      -0.78   -0.71   -0.43
#  26    0.00   -1.17    0.42   -0.09   -0.08    0.00    0.00      -0.91   -0.35   -0.30
#  27    0.01   -3.58    3.32   -0.10   -0.27    0.00    0.00      -0.62   -0.33   -0.95
#  28    0.00   -0.84    0.16   -0.07   -0.07    0.00    0.00      -0.83   -0.32   -0.30
#  29    0.01   -1.39    0.17   -0.08   -0.27    0.00    0.00      -1.56   -0.28   -0.95
#  30   -0.01   -1.05    0.59   -0.14   -0.09    0.00    0.00      -0.69   -0.74   -0.46
#  31   -0.01   -1.56    2.25   -0.11   -0.08    0.00    0.00       0.49   -0.68   -0.45
#  32    0.99   -0.42    0.03   -0.07   -0.08    0.00    0.00       0.45   -0.35   -0.39
#  33   -2.09   -0.49    0.03    0.58   -0.11    0.00    0.00      -2.08    2.30   -0.42
#  34    0.45   -1.57    0.21   -0.38   -0.17    0.00    0.00      -1.46   -0.87   -0.39
#  35    0.43   -1.69    0.18   -0.28   -0.17    0.00    0.00      -1.52   -0.50   -0.30
#  36    0.37   -6.49    4.01   -0.22   -0.58    0.00    0.00      -2.90   -0.37   -0.97
#  37   -2.66   -0.48    0.12    0.94   -0.13    0.00    0.00      -2.21    2.03   -0.28
#  38   -2.06   -0.27    0.02    1.12   -0.08    0.00    0.00      -1.26    3.91   -0.28
#  39   -1.41   -0.02    0.00    1.93    0.08    0.00    0.00       0.57    9.77    0.41
#  40   -1.69   -0.15    0.00    0.35   -0.03    0.00    0.00      -1.51    2.55   -0.20
#  41   -1.85   -0.30    0.04    0.64   -0.08    0.00    0.00      -1.55    2.10   -0.28
#  42   -4.12   -0.63    0.27    1.78   -0.12    0.00    0.00      -2.82    4.22   -0.28
#  43   -3.68   -0.39    0.10    1.75   -0.10    0.00    0.00      -2.32    4.57   -0.25
#  44   -3.66   -0.18    0.01    0.63   -0.05    0.00    0.00      -3.25    3.20   -0.24
#  45   -6.63   -0.70    0.34    2.63   -0.09    0.00    0.00      -4.45    5.91   -0.21
#  46   -2.76   -0.16    0.01    0.90   -0.04    0.00    0.00      -2.05    5.53   -0.27
#  47   -6.02   -1.18    1.77    1.84   -0.11    0.00    0.00      -3.69    4.52   -0.27
#  48   -4.28   -1.10    1.79    1.02   -0.06    0.00    0.00      -2.63    3.36   -0.21
#  49   -1.97   -0.11    0.01    0.36   -0.03    0.00    0.00      -1.75    3.46   -0.28
#  50   -1.87   -0.98    0.89    1.01   -0.12    0.00    0.00      -1.06    2.39   -0.28
#  51   -0.35   -0.21    0.03    0.43   -0.05    0.00    0.00      -0.14    2.31   -0.28
#  52   -0.37   -0.19    0.05    0.13   -0.05    0.00    0.00      -0.43    0.78   -0.28
#  53   -0.14   -0.17    0.02    0.12   -0.05    0.00    0.00      -0.21    0.74   -0.28
#  54   -1.36    0.00    0.00    0.29    0.02    0.00    0.00      -1.06    8.15    0.56
#  55   -0.05   -0.04    0.00    0.12   -0.01    0.00    0.00       0.02    2.78   -0.21
#  56   -0.12   -0.09    0.01    0.12   -0.03    0.00    0.00      -0.12    1.04   -0.26
#  57   -0.08   -0.28    0.23    0.42   -0.04    0.00    0.00       0.24    2.33   -0.21
#  58   -0.04   -0.11    0.01    0.15   -0.03    0.00    0.00      -0.02    1.37   -0.28
#  59    0.00   -0.16    0.08    0.22   -0.03    0.00    0.00       0.11    2.05   -0.28
#  60   -1.87   -0.10    0.00    0.25   -0.03    0.00    0.00      -1.74    2.76   -0.28
#  61   -2.44   -0.08    0.00    0.45   -0.02    0.00    0.00      -2.08    6.24   -0.26
#  62   -2.77   -0.25    0.05    1.06   -0.06    0.00    0.00      -1.98    4.87   -0.28
#  63   -1.42   -0.13    0.01    0.13   -0.03    0.00    0.00      -1.44    1.10   -0.24
#  64   -0.57   -0.39    0.09    0.37   -0.07    0.00    0.00      -0.56    1.19   -0.22

@<TRIPOS>MOLECULE
          T542266        90
   64    66     0     0     0



@<TRIPOS>ATOM
      1 F1          9.7871   -12.2703    99.2445 F          1          -0.1195
      2 C1          8.9733   -11.6130    98.3897 C.ar       1           0.1049
      3 C2          8.7604   -10.2537    98.5448 C.ar       1          -0.1180
      4 C3          7.9285    -9.5797    97.6723 C.ar       1          -0.1071
      5 C4          7.3051   -10.2657    96.6384 C.ar       1           0.1485
      6 N1          6.4616    -9.5835    95.7526 N.am       1          -0.6762
      7 C5          5.7727    -8.5045    96.1740 C.2        1           0.7012
      8 O1          5.4265    -8.4202    97.3365 O.2        1          -0.5491
      9 N2          5.4675    -7.5190    95.3068 N.am       1          -0.6358
     10 C6          4.7147    -6.3159    95.7454 C.3        1           0.0946
     11 C7          5.0830    -4.9614    95.1880 C.3        1          -0.1572
     12 C8          4.3401    -4.7577    93.8517 C.3        1          -0.0123
     13 N3          4.8615    -5.5715    92.8154 N.4        1          -0.3663
     14 H1          5.8357    -5.3413    92.6886 H          1           0.4181
     15 C9          4.1469    -5.2546    91.5717 C.3        1          -0.0186
     16 C10         4.9792    -5.7156    90.3735 C.3        1          -0.1449
     17 C11         4.2347    -5.3855    89.0782 C.3        1          -0.1309
     18 C12         2.8847    -6.1051    89.0684 C.3        1           0.1195
     19 N4          3.1016    -7.5515    89.1520 N.am       1          -0.7325
     20 C13         2.5891    -8.2514    90.1834 C.2        1           0.5521
     21 O2          1.9460    -7.6818    91.0456 O.2        1          -0.5373
     22 C14         2.8059    -9.6966    90.2669 C.2        1          -0.2188
     23 C15         1.8856   -10.4833    90.8608 C.2        1          -0.0046
     24 C16         2.1036   -11.9363    90.9448 C.ar       1          -0.0675
     25 C17         1.0230   -12.7974    91.1624 C.ar       1          -0.0820
     26 C18         1.2348   -14.1582    91.2393 C.ar       1          -0.0348
     27 Cl1        -0.1044   -15.2295    91.5087 Cl         1          -0.0392
     28 C19         2.5154   -14.6722    91.1016 C.ar       1          -0.0196
     29 Cl2         2.7736   -16.3861    91.1999 Cl         1          -0.0355
     30 C20         3.5893   -13.8246    90.8855 C.ar       1          -0.0984
     31 C21         3.3912   -12.4628    90.8015 C.ar       1          -0.0743
     32 C22         4.7535    -7.0135    93.0545 C.3        1          -0.0469
     33 C23         5.8778    -7.5960    93.8816 C.3        1           0.1145
     34 C24         7.5194   -11.6284    96.4834 C.ar       1          -0.0851
     35 C25         8.3569   -12.2988    97.3553 C.ar       1          -0.0575
     36 Cl3         8.6314   -14.0016    97.1584 Cl         1          -0.0339
     37 H2          9.2452    -9.7200    99.3490 H          1           0.1556
     38 H3          7.7624    -8.5196    97.7944 H          1           0.1446
     39 H4          6.3733    -9.8877    94.8358 H          1           0.4107
     40 H5          3.6632    -6.4878    95.5158 H          1           0.0927
     41 H6          4.7999    -6.2559    96.8304 H          1           0.0951
     42 H7          4.7891    -4.1834    95.8927 H          1           0.1287
     43 H8          6.1589    -4.9151    95.0196 H          1           0.0952
     44 H9          3.2864    -4.9985    93.9933 H          1           0.1290
     45 H10         4.4255    -3.7120    93.5561 H          1           0.1397
     46 H11         3.1850    -5.7672    91.5648 H          1           0.1352
     47 H12         3.9855    -4.1784    91.5096 H          1           0.1319
     48 H13         5.9410    -5.2029    90.3805 H          1           0.0911
     49 H14         5.1405    -6.7917    90.4357 H          1           0.0933
     50 H15         4.0733    -4.3094    89.0160 H          1           0.0836
     51 H16         4.8277    -5.7138    88.2247 H          1           0.0826
     52 H17         2.2916    -5.7767    89.9221 H          1           0.0715
     53 H18         2.3542    -5.8701    88.1456 H          1           0.0722
     54 H19         3.6143    -8.0055    88.4650 H          1           0.4041
     55 H20         3.7028   -10.1330    89.8528 H          1           0.1320
     56 H21         0.9886   -10.0470    91.2750 H          1           0.1444
     57 H22         0.0254   -12.3977    91.2700 H          1           0.1459
     58 H23         4.5838   -14.2318    90.7789 H          1           0.1508
     59 H24         4.2291   -11.8037    90.6290 H          1           0.1475
     60 H25         3.8100    -7.2089    93.5639 H          1           0.1315
     61 H26         4.7331    -7.5224    92.0909 H          1           0.1469
     62 H27         6.7910    -7.0212    93.7278 H          1           0.1032
     63 H28         6.0438    -8.6359    93.6000 H          1           0.1344
     64 H29         7.0355   -12.1637    95.6799 H          1           0.1572
@<TRIPOS>BOND
     1    1    2 1
     2    2   35 ar
     3    2    3 ar
     4    3    4 ar
     5    3   37 1
     6    4    5 ar
     7    4   38 1
     8    5    6 1
     9    5   34 ar
    10    6    7 am
    11    6   39 1
    12    7    8 2
    13    7    9 am
    14    9   33 1
    15    9   10 1
    16   10   11 1
    17   10   40 1
    18   10   41 1
    19   11   12 1
    20   11   42 1
    21   11   43 1
    22   12   13 1
    23   12   44 1
    24   12   45 1
    25   13   14 1
    26   13   15 1
    27   13   32 1
    28   15   16 1
    29   15   46 1
    30   15   47 1
    31   16   17 1
    32   16   48 1
    33   16   49 1
    34   17   18 1
    35   17   50 1
    36   17   51 1
    37   18   19 1
    38   18   52 1
    39   18   53 1
    40   19   20 am
    41   19   54 1
    42   20   21 2
    43   20   22 1
    44   22   23 2
    45   22   55 1
    46   23   24 1
    47   23   56 1
    48   24   31 ar
    49   24   25 ar
    50   25   26 ar
    51   25   57 1
    52   26   27 1
    53   26   28 ar
    54   28   29 1
    55   28   30 ar
    56   30   31 ar
    57   30   58 1
    58   31   59 1
    59   32   33 1
    60   32   60 1
    61   32   61 1
    62   33   62 1
    63   33   63 1
    64   34   35 ar
    65   34   64 1
    66   35   36 1
##########                 Name:              T524695
##########          Protonation:                   16
##########               SMILES:   CC1(NC(=[NH2+])NC(=[NH2+])N1OCCCc2ccccc2)C
##########            Long Name:   mylidene-6,6-dimethyl-1-(3-phenylpropoxy)-1,3,5-triazinan-2-ylidene]ammonium
##########          FlexRecCode: 1
##########               Number:                  426
##########   Ligand Source File: /raidb/db2/rgc/tcams/tcams-0000003.db2.gz
##########           GlobalRank: 368
##########                 Rank:                    1
##########               Setnum:                   94
##########             Matchnum:                  953
##########                Cloud:                    1
##########        Electrostatic:           -49.309559
##########        Van der Waals:           -23.158363
##########  Ligand Polar Desolv:            11.385874
########## Ligand Apolar Desolv:            -3.448416
##########      Internal Energy:             0.000000
##########      Receptor Energy: 0.0
########## Receptor Desolvation:             0.000000
########## Receptor Hydrophobic:             0.000000
##########         Total Energy: -64.53
##########        Ligand Charge:             2.000000
##########            Arbitrary:    +999.9990
##########     heavy atom count:   20
##########           pose count:    1
##########        Ligand Energy:             0.000000
# num electro vdwattr vdwrepu polsolv apolsol rdesolv rhydroe totalscore fullpol fullapo
#   1    2.38   -1.48    0.45   -3.87   -0.09    0.00    0.00      -2.61   -7.99   -0.18
#   2   -7.30   -0.62    0.03    6.61   -0.14    0.00    0.00      -1.42   17.71   -0.38
#   3    4.43   -1.19    0.19   -2.97   -0.07    0.00    0.00       0.40   -6.64   -0.16
#   4   13.73   -0.82    0.04  -10.08    0.48    0.00    0.00       3.35  -31.98    1.52
#   5  -13.58   -0.62    0.02    9.02   -1.10    0.00    0.00      -6.26   37.24   -4.53
#   6   11.65   -0.85    0.06   -9.25    0.26    0.00    0.00       1.87  -31.29    0.89
#   7  -10.38   -0.01    0.00    4.56    0.12    0.00    0.00      -5.71   23.51    0.60
#   8   -5.62   -0.02    0.00    4.36    0.11    0.00    0.00      -1.17   24.38    0.60
#   9   11.25   -0.53    0.02   -6.29    0.23    0.00    0.00       4.68  -31.06    1.15
#  10  -16.48   -0.63    0.03    7.84   -0.97    0.00    0.00     -10.21   35.49   -4.37
#  11   23.13   -1.50    0.79   -7.86    0.23    0.00    0.00      14.80  -30.53    0.89
#  12  -19.07   -0.04    0.00    5.40    0.14    0.00    0.00     -13.57   23.99    0.60
#  13  -16.93   -0.02    0.00    4.27    0.09    0.00    0.00     -12.60   21.33    0.45
#  14    7.13   -0.75    0.06   -5.11    0.21    0.00    0.00       1.53  -21.01    0.87
#  15    0.54   -1.05    0.33   -1.13    0.12    0.00    0.00      -1.20   -4.11    0.43
#  16   -0.02   -0.63    0.03    0.19   -0.04    0.00    0.00      -0.47    0.55   -0.13
#  17    1.16   -0.84    0.07   -1.21   -0.09    0.00    0.00      -0.91   -3.17   -0.24
#  18    0.48   -0.81    0.09   -0.63   -0.08    0.00    0.00      -0.94   -1.88   -0.23
#  19    0.68   -1.38    0.17   -0.59   -0.14    0.00    0.00      -1.26   -1.50   -0.36
#  20    0.64   -1.66    0.26   -1.04   -0.21    0.00    0.00      -2.01   -2.27   -0.46
#  21    0.95   -2.06    0.34   -1.26   -0.27    0.00    0.00      -2.30   -2.21   -0.47
#  22    0.72   -2.54    0.63   -1.34   -0.29    0.00    0.00      -2.81   -2.20   -0.47
#  23    1.03   -2.31    0.97   -1.18   -0.26    0.00    0.00      -1.75   -2.14   -0.47
#  24    1.14   -1.74    0.52   -1.05   -0.21    0.00    0.00      -1.34   -2.28   -0.46
#  25   -2.18   -0.60    0.33    1.55   -0.13    0.00    0.00      -1.03    3.33   -0.27
#  26   -0.34   -0.75    0.67    1.78   -0.12    0.00    0.00       1.23    4.13   -0.28
#  27   -0.73   -0.51    0.19    1.99   -0.10    0.00    0.00       0.83    5.00   -0.26
#  28   -3.15   -0.33    0.05    0.72   -0.08    0.00    0.00      -2.79    2.51   -0.27
#  29   -2.72   -0.51    0.12    0.95   -0.13    0.00    0.00      -2.29    2.10   -0.28
#  30   -2.98   -0.54    0.21    1.33   -0.10    0.00    0.00      -2.09    3.88   -0.28
#  31  -10.75   -0.02    0.00    5.16    0.14    0.00    0.00      -5.46   21.17    0.58
#  32   -6.59   -0.01    0.00    2.18    0.05    0.00    0.00      -4.37   25.88    0.59
#  33   -2.02   -0.19    0.01    0.77   -0.05    0.00    0.00      -1.48    4.07   -0.27
#  34   -1.27   -0.23    0.02    1.18   -0.05    0.00    0.00      -0.34    5.52   -0.22
#  35   -1.26   -0.24    0.01    0.47   -0.07    0.00    0.00      -1.09    1.87   -0.28
#  36   -0.61   -0.49    0.16    0.38   -0.09    0.00    0.00      -0.65    1.18   -0.28
#  37   -0.07   -0.41    0.19    0.68   -0.07    0.00    0.00       0.32    2.73   -0.28
#  38   -0.82   -0.29    0.09    0.66   -0.05    0.00    0.00      -0.41    3.46   -0.28
#  39   -0.49   -0.40    0.10    1.15   -0.09    0.00    0.00       0.27    3.70   -0.28
#  40   -1.61   -0.58    0.19    0.84   -0.15    0.00    0.00      -1.32    1.56   -0.28
#  41   -0.28   -1.17    1.26    0.54   -0.17    0.00    0.00       0.18    0.89   -0.28
#  42   -1.42   -0.62    0.42    0.70   -0.15    0.00    0.00      -1.07    1.34   -0.28
#  43   -1.68   -0.29    0.03    0.95   -0.09    0.00    0.00      -1.08    3.09   -0.28

@<TRIPOS>MOLECULE
          T524695        16
   43    44     0     0     0



@<TRIPOS>ATOM
      1 C1          2.4998    -7.4835    96.8030 C.3        1          -0.1917
      2 C2          2.6685    -6.5368    95.6128 C.3        1           0.4028
      3 C3          2.9326    -5.1133    96.1073 C.3        1          -0.1738
      4 N1          1.4613    -6.5649    94.7689 N.pl3      1          -0.7066
      5 C4          1.5553    -6.0115    93.5001 C.cat      1           0.7711
      6 N2          0.6360    -5.2214    93.0236 N.pl3      1          -0.6668
      7 H1         -0.1427    -5.0046    93.5598 H          1           0.4686
      8 H2          0.7299    -4.8499    92.1326 H          1           0.4604
      9 N3          2.6905    -6.3494    92.7645 N.pl3      1          -0.6713
     10 C5          3.8778    -6.4381    93.4901 C.cat      1           0.7643
     11 N4          5.0139    -6.0256    93.0044 N.pl3      1          -0.6725
     12 H3          5.0505    -5.6435    92.1137 H          1           0.4597
     13 H4          5.8234    -6.1006    93.5337 H          1           0.4604
     14 N5          3.7797    -6.9905    94.7588 N.pl3      1          -0.4874
     15 O1          4.7124    -7.9531    95.2155 O.3        1          -0.0700
     16 C6          5.8490    -7.3932    95.8764 C.3        1           0.0015
     17 C7          6.5139    -8.4645    96.7431 C.3        1          -0.1104
     18 C8          6.9611    -9.6305    95.8590 C.3        1          -0.0701
     19 C9          7.6160   -10.6858    96.7126 C.ar       1          -0.1036
     20 C10         7.5524   -12.0150    96.3384 C.ar       1          -0.1156
     21 C11         8.1532   -12.9829    97.1214 C.ar       1          -0.1150
     22 C12         8.8179   -12.6216    98.2783 C.ar       1          -0.1102
     23 C13         8.8822   -11.2923    98.6520 C.ar       1          -0.1140
     24 C14         8.2852   -10.3238    97.8668 C.ar       1          -0.1139
     25 H5          1.6757    -7.1386    97.4276 H          1           0.1127
     26 H6          2.2849    -8.4885    96.4403 H          1           0.1242
     27 H7          3.4186    -7.4975    97.3892 H          1           0.0691
     28 H8          3.0511    -4.4479    95.2520 H          1           0.1109
     29 H9          2.0923    -4.7779    96.7150 H          1           0.1008
     30 H10         3.8429    -5.0999    96.7068 H          1           0.1150
     31 H11         0.6327    -6.9554    95.0879 H          1           0.4663
     32 H12         2.6565    -6.5121    91.8090 H          1           0.4807
     33 H13         6.5607    -7.0335    95.1335 H          1           0.0938
     34 H14         5.5304    -6.5627    96.5063 H          1           0.0676
     35 H15         7.3808    -8.0376    97.2473 H          1           0.0875
     36 H16         5.8021    -8.8242    97.4861 H          1           0.0929
     37 H17         6.0941   -10.0575    95.3548 H          1           0.0810
     38 H18         7.6729    -9.2709    95.1160 H          1           0.0776
     39 H19         7.0331   -12.2973    95.4346 H          1           0.1194
     40 H20         8.1029   -14.0215    96.8295 H          1           0.1270
     41 H21         9.2867   -13.3779    98.8904 H          1           0.1283
     42 H22         9.4013   -11.0100    99.5561 H          1           0.1278
     43 H23         8.3386    -9.2849    98.1569 H          1           0.1215
@<TRIPOS>BOND
     1    1    2 1
     2    1   25 1
     3    1   26 1
     4    1   27 1
     5    2   14 1
     6    2    3 1
     7    2    4 1
     8    3   28 1
     9    3   29 1
    10    3   30 1
    11    4    5 1
    12    4   31 1
    13    5    6 2
    14    5    9 1
    15    6    7 1
    16    6    8 1
    17    9   10 1
    18    9   32 1
    19   10   11 2
    20   10   14 1
    21   11   12 1
    22   11   13 1
    23   14   15 1
    24   15   16 1
    25   16   17 1
    26   16   33 1
    27   16   34 1
    28   17   18 1
    29   17   35 1
    30   17   36 1
    31   18   19 1
    32   18   37 1
    33   18   38 1
    34   19   24 ar
    35   19   20 ar
    36   20   21 ar
    37   20   39 1
    38   21   22 ar
    39   21   40 1
    40   22   23 ar
    41   22   41 1
    42   23   24 ar
    43   23   42 1
    44   24   43 1
##########                 Name:              T528695
##########          Protonation:                   89
##########               SMILES:   c1cc(cc(c1)Nc2c-3c(=O)nccc3[nH+]c([nH]2)NCCC[NH3+])C(=O)N
##########            Long Name:   moylanilino)-5-oxo-3H-pyrido[4,3-d]pyrimidin-1-ium-2-yl]amino]propylammonium
##########          FlexRecCode: 1
##########               Number:                  172
##########   Ligand Source File: /raidb/db2/rgc/tcams/tcams-0000447.db2.gz
##########           GlobalRank: 368
##########                 Rank:                    1
##########               Setnum:                   15
##########             Matchnum:                 3194
##########                Cloud:                    1
##########        Electrostatic:           -81.595337
##########        Van der Waals:           -16.397470
##########  Ligand Polar Desolv:            33.682358
########## Ligand Apolar Desolv:            -0.220048
##########      Internal Energy:             0.000000
##########      Receptor Energy: 0.0
########## Receptor Desolvation:             0.000000
########## Receptor Hydrophobic:             0.000000
##########         Total Energy: -64.53
##########        Ligand Charge:             2.000000
##########            Arbitrary:    +999.9990
##########     heavy atom count:   26
##########           pose count:    1
##########        Ligand Energy:             0.000000
# num electro vdwattr vdwrepu polsolv apolsol rdesolv rhydroe totalscore fullpol fullapo
#   1    0.39   -0.13    0.00   -0.73    0.12    0.00    0.00      -0.34  -11.69    1.95
#   2   -0.20   -0.25    0.03    0.48   -0.06    0.00    0.00      -0.01    5.28   -0.68
#   3    1.56   -0.15    0.00   -0.20    0.03    0.00    0.00       1.25   -2.59    0.42
#   4    0.06   -0.76    0.36   -0.32   -0.06    0.00    0.00      -0.71   -2.26   -0.41
#   5    0.24   -0.87    0.32   -0.42   -0.08    0.00    0.00      -0.79   -2.38   -0.44
#   6   -0.46   -1.22    0.42    0.89   -0.17    0.00    0.00      -0.55    3.58   -0.70
#   7    3.85   -1.06    0.16   -4.00    0.21    0.00    0.00      -0.85  -15.11    0.79
#   8   -5.84   -1.24    0.37    4.58   -0.42    0.00    0.00      -2.55   17.56   -1.62
#   9    3.60   -0.97    0.09   -2.67   -0.12    0.00    0.00      -0.07   -8.90   -0.41
#  10   -3.30   -1.61    0.43    2.27   -0.23    0.00    0.00      -2.45    6.49   -0.67
#  11   -0.12   -2.75    1.36   -2.01    0.16    0.00    0.00      -3.37   -5.18    0.41
#  12    4.98   -1.90    0.40   -4.25    1.40    0.00    0.00       0.62  -10.06    3.31
#  13   -4.55   -1.63    0.31    2.20   -0.40    0.00    0.00      -4.07    5.30   -0.96
#  14    5.27   -1.35    0.22   -3.30   -0.19    0.00    0.00       0.65   -8.06   -0.46
#  15   -4.49   -1.08    0.12    3.56   -0.25    0.00    0.00      -2.15   10.50   -0.73
#  16   20.04   -2.71    2.35   -7.89    0.36    0.00    0.00      12.15  -21.47    0.97
#  17  -25.66   -0.15    0.07    8.69    0.16    0.00    0.00     -16.88   24.38    0.45
#  18  -22.09   -3.12    3.79   10.34   -1.53    0.00    0.00     -12.61   32.41   -4.80
#  19   24.79   -4.41    5.42  -10.34    0.61    0.00    0.00      16.07  -29.26    1.72
#  20   -1.91   -1.07    0.42    0.53   -0.11    0.00    0.00      -2.14    1.87   -0.37
#  21    3.99   -0.71    0.14   -2.43   -0.06    0.00    0.00       0.94   -9.11   -0.24
#  22    0.09   -0.62    0.09    0.07   -0.12    0.00    0.00      -0.48    0.31   -0.49
#  23   26.10   -3.42    5.28  -11.46    0.28    0.00    0.00      16.77  -34.75    0.86
#  24  -15.89   -0.04    0.00    6.69    0.16    0.00    0.00      -9.07   24.75    0.60
#  25  -18.47   -0.05    0.00    6.42    0.15    0.00    0.00     -11.95   24.86    0.59
#  26  -24.39   -0.27    0.11   10.89    0.26    0.00    0.00     -13.40   25.04    0.59
#  27   10.38   -2.18    1.66   -5.95    0.22    0.00    0.00       4.13  -22.81    0.83
#  28    0.78   -1.75    0.64   -0.96   -0.13    0.00    0.00      -1.42   -3.13   -0.42
#  29    0.39   -1.72    0.70   -0.47   -0.13    0.00    0.00      -1.23   -1.64   -0.47
#  30    0.13   -0.97    0.48   -0.44   -0.08    0.00    0.00      -0.88   -2.33   -0.44
#  31   -0.27    0.00    0.00    0.11    0.01    0.00    0.00      -0.14    5.53    0.60
#  32   -0.16    0.00    0.00    0.24    0.01    0.00    0.00       0.09    8.38    0.46
#  33   -1.08   -0.09    0.01    0.04   -0.02    0.00    0.00      -1.15    0.51   -0.26
#  34   -3.02   -0.01    0.00    1.38    0.09    0.00    0.00      -1.56    7.84    0.53
#  35   -3.70   -0.59    0.26    1.68   -0.12    0.00    0.00      -2.47    4.09   -0.28
#  36   -5.10   -0.39    0.09    3.22   -0.09    0.00    0.00      -2.26    9.78   -0.28
#  37  -24.21   -0.23    0.09   11.42    0.27    0.00    0.00     -12.66   24.28    0.57
#  38   -1.89   -0.56    0.49    2.33   -0.07    0.00    0.00       0.30    8.59   -0.27
#  39   -1.77   -0.14    0.02    1.15   -0.04    0.00    0.00      -0.78    8.05   -0.27
#  40   -3.29   -0.53    0.49    1.76   -0.08    0.00    0.00      -1.65    6.10   -0.28
#  41   -1.79   -0.09    0.00    0.52   -0.02    0.00    0.00      -1.38    6.58   -0.28
#  42   -3.15   -0.17    0.01    1.30   -0.05    0.00    0.00      -2.05    7.97   -0.28
#  43   -2.31   -0.07    0.00    0.49   -0.02    0.00    0.00      -1.91    7.66   -0.28
#  44   -6.28   -0.03    0.00    3.71    0.10    0.00    0.00      -2.50   20.34    0.57
#  45   -1.06   -0.37    0.08    2.14   -0.07    0.00    0.00       0.73    7.13   -0.22
#  46   -1.68   -0.54    0.33    2.10   -0.09    0.00    0.00       0.14    6.67   -0.28
#  47   -0.09   -0.09    0.01    0.31   -0.02    0.00    0.00       0.12    4.00   -0.22

@<TRIPOS>MOLECULE
          T528695        89
   47    49     0     0     0



@<TRIPOS>ATOM
      1 N1          4.3822   -11.6237    88.9978 N.am       1          -0.8426
      2 C1          4.8831   -10.8115    89.9495 C.2        1           0.5563
      3 O1          4.7870    -9.6055    89.8317 O.2        1          -0.5226
      4 C2          5.5496   -11.3874    91.1371 C.ar       1          -0.0827
      5 C3          6.0637   -10.5491    92.1264 C.ar       1          -0.0768
      6 C4          6.6873   -11.0965    93.2368 C.ar       1           0.1395
      7 N2          7.2041   -10.2603    94.2318 N.pl3      1          -0.6296
      8 C5          7.0944    -8.9059    94.1093 C.2        1           0.5051
      9 C6          6.4140    -8.1488    95.0689 C.2        1          -0.2712
     10 C7          5.7879    -8.7486    96.2445 C.2        1           0.5367
     11 O2          5.8406    -9.9568    96.4296 O.2        1          -0.4453
     12 N3          5.1574    -7.9552    97.1137 N.2        1          -0.5375
     13 C8          5.0811    -6.6473    96.9461 C.2        1           0.2660
     14 C9          5.6414    -6.0014    95.8697 C.2        1          -0.2178
     15 C10         6.3261    -6.7418    94.8984 C.2        1           0.1854
     16 N4          6.8942    -6.1694    93.8265 N.pl3      1          -0.5370
     17 H1          6.8354    -5.2083    93.7086 H          1           0.4536
     18 C11         7.5301    -6.8957    92.9340 C.cat      1           0.7265
     19 N5          8.0962    -6.2708    91.8535 N.pl3      1          -0.6803
     20 C12         8.8105    -7.0565    90.8441 C.3        1           0.0879
     21 C13         8.6896    -6.3687    89.4829 C.3        1          -0.1694
     22 C14         7.2134    -6.2614    89.0950 C.3        1          -0.0038
     23 N6          6.4973    -5.4735    90.1072 N.4        1          -0.6377
     24 H2          5.5237    -5.4029    89.8515 H          1           0.4497
     25 H3          6.5770    -5.9272    91.0050 H          1           0.4401
     26 H4          6.8990    -4.5495    90.1604 H          1           0.4399
     27 N7          7.6502    -8.2489    93.0499 N.pl3      1          -0.6038
     28 C15         6.7984   -12.4765    93.3618 C.ar       1          -0.1584
     29 C16         6.2892   -13.3069    92.3813 C.ar       1          -0.0802
     30 C17         5.6613   -12.7719    91.2748 C.ar       1          -0.0955
     31 H5          3.9467   -11.2458    88.2177 H          1           0.4153
     32 H6          4.4607   -12.5860    89.0908 H          1           0.4025
     33 H7          5.9766    -9.4772    92.0273 H          1           0.1545
     34 H8          7.6404   -10.6433    95.0089 H          1           0.4519
     35 H9          4.5563    -6.0607    97.6855 H          1           0.1864
     36 H10         5.5536    -4.9293    95.7736 H          1           0.1650
     37 H11         8.0240    -5.3082    91.7570 H          1           0.4452
     38 H12         9.8621    -7.1330    91.1205 H          1           0.1115
     39 H13         8.3764    -8.0547    90.7866 H          1           0.1115
     40 H14         9.1237    -5.3705    89.5404 H          1           0.1107
     41 H15         9.2210    -6.9532    88.7319 H          1           0.1106
     42 H16         7.1272    -5.7713    88.1253 H          1           0.1441
     43 H17         6.7795    -7.2595    89.0376 H          1           0.1441
     44 H18         8.1313    -8.7491    92.3722 H          1           0.4535
     45 H19         7.2845   -12.9011    94.2276 H          1           0.1134
     46 H20         6.3790   -14.3784    92.4837 H          1           0.1431
     47 H21         5.2604   -13.4244    90.5134 H          1           0.1421
@<TRIPOS>BOND
     1    1    2 am
     2    1   31 1
     3    1   32 1
     4    2    3 2
     5    2    4 1
     6    4   30 ar
     7    4    5 ar
     8    5    6 ar
     9    5   33 1
    10    6    7 1
    11    6   28 ar
    12    7    8 1
    13    7   34 1
    14    8   27 1
    15    8    9 2
    16    9   15 1
    17    9   10 1
    18   10   11 2
    19   10   12 1
    20   12   13 2
    21   13   14 1
    22   13   35 1
    23   14   15 2
    24   14   36 1
    25   15   16 1
    26   16   17 1
    27   16   18 2
    28   18   19 1
    29   18   27 1
    30   19   20 1
    31   19   37 1
    32   20   21 1
    33   20   38 1
    34   20   39 1
    35   21   22 1
    36   21   40 1
    37   21   41 1
    38   22   23 1
    39   22   42 1
    40   22   43 1
    41   23   24 1
    42   23   25 1
    43   23   26 1
    44   27   44 1
    45   28   29 ar
    46   28   45 1
    47   29   30 ar
    48   29   46 1
    49   30   47 1
##########                 Name:              T533398
##########          Protonation:                  100
##########               SMILES:   3c(c(c2)C(=O)N[C@H]4CC[C@H](CC4)C[NH+]5CC[C@@H](CC5)c6c7c([nH]c6)cccc7)cccc3
##########            Long Name:   4-(1H-indol-3-yl)piperidin-1-ium-1-yl]methyl]cyclohexyl]indole-3-carboxamide
##########          FlexRecCode: 1
##########               Number:                  289
##########   Ligand Source File: /raidb/db2/rgc/tcams/tcams-0001073.db2.gz
##########           GlobalRank: 368
##########                 Rank:                    1
##########               Setnum:                  137
##########             Matchnum:                  479
##########                Cloud:                    1
##########        Electrostatic:           -28.989063
##########        Van der Waals:           -38.550827
##########  Ligand Polar Desolv:             9.544456
########## Ligand Apolar Desolv:            -6.532996
##########      Internal Energy:             0.000000
##########      Receptor Energy: 0.0
########## Receptor Desolvation:             0.000000
########## Receptor Hydrophobic:             0.000000
##########         Total Energy: -64.53
##########        Ligand Charge:             1.000000
##########            Arbitrary:    +999.9990
##########     heavy atom count:   41
##########           pose count:    1
##########        Ligand Energy:             0.000000
# num electro vdwattr vdwrepu polsolv apolsol rdesolv rhydroe totalscore fullpol fullapo
#   1    1.91   -0.66    0.06    0.28    0.10    0.00    0.00       1.68    1.10    0.39
#   2   -1.10   -0.42    0.02    0.56   -0.11    0.00    0.00      -1.05    3.40   -0.65
#   3    3.33   -0.38    0.01   -1.43    0.26    0.00    0.00       1.78   -9.57    1.71
#   4   -1.38   -0.41    0.02    0.46   -0.07    0.00    0.00      -1.38    1.86   -0.28
#   5    2.60   -0.51    0.02   -0.55   -0.07    0.00    0.00       1.49   -1.88   -0.24
#   6    2.31   -0.56    0.03   -0.64   -0.06    0.00    0.00       1.09   -2.23   -0.20
#   7    2.27   -0.44    0.01   -0.76   -0.04    0.00    0.00       1.04   -2.98   -0.14
#   8    0.22   -0.61    0.04    0.15   -0.10    0.00    0.00      -0.29    0.46   -0.31
#   9    8.26   -0.70    0.03   -3.92    0.08    0.00    0.00       3.76  -12.99    0.27
#  10   -6.00   -0.01    0.00    2.06    0.05    0.00    0.00      -3.90   17.50    0.43
#  11    0.22   -0.89    0.09    0.03   -0.15    0.00    0.00      -0.69    0.07   -0.37
#  12    1.69   -1.17    0.19   -1.64   -0.10    0.00    0.00      -1.02   -3.67   -0.22
#  13    0.24   -1.14    0.26   -0.21   -0.08    0.00    0.00      -0.93   -0.44   -0.17
#  14    2.82   -1.26    0.37   -1.54   -0.09    0.00    0.00       0.30   -3.88   -0.22
#  15    0.21   -0.95    0.13    0.21   -0.15    0.00    0.00      -0.55    0.52   -0.38
#  16    2.95   -1.78    0.21   -1.62   -0.19    0.00    0.00      -0.42   -3.06   -0.35
#  17   -1.43   -3.00    0.77    0.69   -0.57    0.00    0.00      -3.53    1.14   -0.93
#  18   12.86   -3.60    1.91   -4.71    0.70    0.00    0.00       7.15   -7.92    1.17
#  19   -1.28   -2.23    0.88    0.13   -0.41    0.00    0.00      -2.92    0.25   -0.78
#  20    1.10   -2.27    0.73   -0.63   -0.27    0.00    0.00      -1.34   -1.11   -0.48
#  21    0.69   -1.78    0.22   -0.52   -0.27    0.00    0.00      -1.66   -0.90   -0.47
#  22    0.84   -1.49    0.17   -0.66   -0.22    0.00    0.00      -1.36   -1.37   -0.47
#  23    0.52   -1.46    0.21   -0.31   -0.18    0.00    0.00      -1.22   -0.82   -0.47
#  24    1.15   -1.71    0.41   -0.70   -0.20    0.00    0.00      -1.06   -1.53   -0.44
#  25    1.03   -0.54    0.10   -0.77   -0.04    0.00    0.00      -0.22   -3.84   -0.21
#  26    0.84   -0.66    0.11   -0.76   -0.07    0.00    0.00      -0.55   -2.49   -0.24
#  27    0.34   -0.36    0.01   -0.32   -0.06    0.00    0.00      -0.38   -2.32   -0.44
#  28   -0.15   -0.23    0.00    0.27   -0.09    0.00    0.00      -0.20    2.80   -0.92
#  29    0.67   -0.30    0.01   -0.68    0.14    0.00    0.00      -0.15   -5.44    1.15
#  30   -0.24   -0.15    0.00    0.22   -0.05    0.00    0.00      -0.22    2.20   -0.46
#  31    0.29   -0.42    0.02   -0.25   -0.06    0.00    0.00      -0.42   -1.67   -0.38
#  32    0.27   -0.66    0.05   -0.26   -0.10    0.00    0.00      -0.71   -1.19   -0.45
#  33    0.45   -1.23    0.24   -0.36   -0.14    0.00    0.00      -1.03   -1.24   -0.47
#  34    0.53   -1.34    0.33   -0.41   -0.14    0.00    0.00      -1.03   -1.34   -0.47
#  35    0.96   -1.30    0.42   -0.46   -0.12    0.00    0.00      -0.51   -1.75   -0.47
#  36    0.33   -0.58    0.05   -0.26   -0.08    0.00    0.00      -0.55   -1.40   -0.45
#  37   -0.11   -0.62    0.04    0.08   -0.17    0.00    0.00      -0.78    0.35   -0.73
#  38    0.12   -1.62    0.49   -0.19   -0.15    0.00    0.00      -1.35   -0.57   -0.46
#  39    0.04   -2.87    1.21   -0.21   -0.22    0.00    0.00      -2.06   -0.44   -0.47
#  40    0.03   -1.92    0.32   -0.06   -0.24    0.00    0.00      -1.86   -0.11   -0.47
#  41    0.05   -1.20    0.17    0.00   -0.18    0.00    0.00      -1.16    0.00   -0.46
#  42    0.07   -0.60    0.03   -0.08   -0.10    0.00    0.00      -0.68   -0.33   -0.44
#  43   -2.59    0.00    0.00    0.54    0.02    0.00    0.00      -2.03    9.34    0.39
#  44   -0.60   -0.21    0.04   -0.08   -0.05    0.00    0.00      -0.91   -0.41   -0.26
#  45   -1.53   -0.16    0.01   -0.09   -0.05    0.00    0.00      -1.82   -0.55   -0.28
#  46   -2.09   -0.24    0.04    0.26   -0.07    0.00    0.00      -2.10    1.12   -0.28
#  47   -1.45   -0.18    0.02    0.29   -0.05    0.00    0.00      -1.37    1.65   -0.26
#  48   -1.86   -0.28    0.03    0.41   -0.07    0.00    0.00      -1.77    1.54   -0.28
#  49   -2.00   -0.15    0.00    0.53   -0.03    0.00    0.00      -1.65    3.59   -0.22
#  50   -4.48   -0.24    0.06    1.25   -0.05    0.00    0.00      -3.47    6.84   -0.28
#  51   -4.40   -0.26    0.02    1.56   -0.08    0.00    0.00      -3.17    5.23   -0.28
#  52   -2.97   -0.57    0.28    1.58   -0.10    0.00    0.00      -1.78    4.61   -0.28
#  53   -1.96   -0.24    0.02    1.43   -0.06    0.00    0.00      -0.81    5.28   -0.21
#  54   -1.37   -0.64    0.30    0.62   -0.13    0.00    0.00      -1.21    1.35   -0.28
#  55   -0.51   -0.38    0.07    1.02   -0.08    0.00    0.00       0.12    3.47   -0.27
#  56   -1.46   -1.04    3.45    0.68   -0.11    0.00    0.00       1.53    1.75   -0.28
#  57   -2.59   -1.15    1.51    0.69   -0.12    0.00    0.00      -1.65    1.64   -0.28
#  58   -1.36   -0.30    0.07    0.75   -0.06    0.00    0.00      -0.90    3.60   -0.27
#  59   -4.87   -0.44    0.23    2.01   -0.08    0.00    0.00      -3.16    6.68   -0.28
#  60   -4.20   -0.40    0.08    2.04   -0.12    0.00    0.00      -2.59    4.72   -0.28
#  61   -3.83   -0.94    0.33    3.76   -0.17    0.00    0.00      -0.86    6.06   -0.28
#  62  -10.55   -0.10    0.01    3.72    0.36    0.00    0.00      -6.57    6.17    0.59
#  63   -0.79   -0.77    0.98    0.44   -0.16    0.00    0.00      -0.30    0.76   -0.28
#  64   -0.93   -0.47    0.09    0.36   -0.15    0.00    0.00      -1.10    0.68   -0.28
#  65   -0.71   -0.32    0.05    0.32   -0.09    0.00    0.00      -0.75    1.01   -0.28
#  66   -0.58   -0.25    0.02    0.50   -0.07    0.00    0.00      -0.36    2.12   -0.28
#  67   -0.74   -0.09    0.00    0.27   -0.02    0.00    0.00      -0.57    3.32   -0.22
#  68    0.12   -0.41    0.39    0.89   -0.04    0.00    0.00       0.95    5.00   -0.22
#  69   -0.96   -0.26    0.03    0.57   -0.08    0.00    0.00      -0.70    1.91   -0.28
#  70   -0.08   -0.28    0.08    0.29   -0.07    0.00    0.00      -0.07    1.18   -0.28
#  71   -0.37   -0.03    0.00    0.24   -0.01    0.00    0.00      -0.17    7.03   -0.26
#  72   -0.14   -0.02    0.00    0.11   -0.01    0.00    0.00      -0.06    3.86   -0.28
#  73   -0.15   -0.05    0.00    0.06   -0.01    0.00    0.00      -0.15    1.30   -0.28
#  74   -0.30   -0.12    0.00    0.10   -0.03    0.00    0.00      -0.34    0.90   -0.24
#  75   -0.59   -0.63    0.56    0.17   -0.07    0.00    0.00      -0.56    0.64   -0.28
#  76   -2.36   -0.32    0.07    0.30   -0.07    0.00    0.00      -2.37    1.18   -0.28
#  77   -3.38   -0.39    0.14    0.67   -0.07    0.00    0.00      -3.03    2.74   -0.28
#  78   -0.65   -0.08    0.00    0.40   -0.02    0.00    0.00      -0.36    4.49   -0.28
#  79   -0.15   -0.47    0.38    0.31   -0.06    0.00    0.00       0.01    1.17   -0.24
#  80   -0.01   -1.62    2.77    0.43   -0.15    0.00    0.00       1.42    0.81   -0.28
#  81    0.02   -0.57    0.14    0.09   -0.16    0.00    0.00      -0.47    0.16   -0.28
#  82   -0.09   -0.41    0.23   -0.15   -0.07    0.00    0.00      -0.48   -0.56   -0.26

@<TRIPOS>MOLECULE
          T533398       100
   82    88     0     0     0



@<TRIPOS>ATOM
      1 O1         -1.0770    -6.8156    90.8615 O.2        1          -0.5310
      2 C1          0.1080    -6.9683    90.6309 C.2        1           0.5934
      3 N1          0.9715    -7.1700    91.6458 N.am       1          -0.7311
      4 C2          0.4835    -7.2054    93.0267 C.3        1           0.1461
      5 C3          0.5181    -5.7941    93.6162 C.3        1          -0.1326
      6 C4          1.9547    -5.2681    93.5964 C.3        1          -0.1085
      7 C5          2.8470    -6.1907    94.4291 C.3        1          -0.1152
      8 C6          4.2837    -5.6648    94.4093 C.3        1          -0.0079
      9 N2          5.1405    -6.5507    95.2087 N.4        1          -0.3834
     10 H1          5.1170    -7.4811    94.8191 H          1           0.4186
     11 C7          4.6483    -6.5881    96.5911 C.3        1          -0.0125
     12 C8          5.4880    -7.5717    97.4089 C.3        1          -0.1379
     13 C9          6.9505    -7.1179    97.3983 C.3        1          -0.0147
     14 C10         7.4310    -7.0108    95.9482 C.3        1          -0.1388
     15 C11         6.5190    -6.0469    95.1858 C.3        1          -0.0071
     16 C12         7.7957    -8.1240    98.1362 C.2        1          -0.1860
     17 C13         8.5436    -7.8920    99.2265 C.2        1           0.0666
     18 N3          9.1703    -9.0443    99.6161 N.pl3      1          -0.5899
     19 C14         8.8321   -10.0719    98.7644 C.ar       1           0.0953
     20 C15         9.1773   -11.4183    98.7033 C.ar       1          -0.1258
     21 C16         8.6600   -12.2125    97.7038 C.ar       1          -0.0925
     22 C17         7.7962   -11.6834    96.7545 C.ar       1          -0.1358
     23 C18         7.4439   -10.3640    96.7957 C.ar       1          -0.0788
     24 C19         7.9519    -9.5420    97.8036 C.ar       1          -0.1001
     25 C20         2.8124    -7.6021    93.8396 C.3        1          -0.1289
     26 C21         1.3758    -8.1279    93.8595 C.3        1          -0.1267
     27 C22         0.5965    -6.9386    89.2457 C.2        1          -0.2312
     28 C23         1.6695    -7.6142    88.7439 C.2        1           0.1077
     29 N4          1.8098    -7.3372    87.4253 N.pl3      1          -0.4587
     30 C24         2.8571    -7.8886    86.5621 C.3        1           0.1461
     31 C25         4.0587    -6.9793    86.5863 C.ar       1          -0.1205
     32 C26         4.6955    -6.6440    85.4060 C.ar       1          -0.0947
     33 C27         5.7977    -5.8100    85.4283 C.ar       1          -0.1153
     34 C28         6.2625    -5.3106    86.6307 C.ar       1          -0.1065
     35 C29         5.6249    -5.6450    87.8107 C.ar       1          -0.1218
     36 C30         4.5203    -6.4757    87.7880 C.ar       1          -0.1028
     37 C31         0.8267    -6.4631    87.0097 C.ar       1           0.0913
     38 C32         0.5293    -5.8777    85.7832 C.ar       1          -0.1251
     39 C33        -0.5450    -5.0225    85.6721 C.ar       1          -0.0941
     40 C34        -1.3378    -4.7362    86.7743 C.ar       1          -0.1353
     41 C35        -1.0593    -5.3053    87.9974 C.ar       1          -0.0661
     42 C36         0.0195    -6.1776    88.1224 C.ar       1          -0.0625
     43 H2          1.9161    -7.2918    91.4620 H          1           0.3903
     44 H3         -0.5400    -7.5801    93.0408 H          1           0.0970
     45 H4         -0.1177    -5.1368    93.0230 H          1           0.0816
     46 H5          0.1550    -5.8204    94.6436 H          1           0.0766
     47 H6          2.3178    -5.2418    92.5689 H          1           0.0738
     48 H7          1.9794    -4.2626    94.0164 H          1           0.0748
     49 H8          2.4840    -6.2171    95.4566 H          1           0.0981
     50 H9          4.6467    -5.6382    93.3819 H          1           0.1296
     51 H10         4.3084    -4.6593    94.8294 H          1           0.1318
     52 H11         4.7244    -5.5934    97.0304 H          1           0.1302
     53 H12         3.6064    -6.9081    96.5967 H          1           0.1319
     54 H13         5.1221    -7.5967    98.4354 H          1           0.1136
     55 H14         5.4124    -8.5668    96.9707 H          1           0.0857
     56 H15         7.0338    -6.1450    97.8827 H          1           0.0937
     57 H16         8.4538    -6.6349    95.9305 H          1           0.1137
     58 H17         7.3958    -7.9943    95.4795 H          1           0.0858
     59 H18         6.8591    -5.9672    94.1534 H          1           0.1292
     60 H19         6.5541    -5.0641    95.6560 H          1           0.1298
     61 H20         8.6373    -6.9372    99.7224 H          1           0.1649
     62 H21         9.7642    -9.1252   100.3788 H          1           0.4207
     63 H22         9.8489   -11.8392    99.4370 H          1           0.1239
     64 H23         8.9295   -13.2574    97.6581 H          1           0.1304
     65 H24         7.3997   -12.3198    95.9772 H          1           0.1264
     66 H25         6.7713    -9.9593    96.0538 H          1           0.1194
     67 H26         3.1756    -7.5757    92.8122 H          1           0.0749
     68 H27         3.4481    -8.2593    94.4328 H          1           0.0612
     69 H28         1.0127    -8.1544    94.8868 H          1           0.0851
     70 H29         1.3512    -9.1335    93.4395 H          1           0.0811
     71 H30         2.3113    -8.2710    89.3124 H          1           0.1666
     72 H31         3.1421    -8.8769    86.9227 H          1           0.1019
     73 H32         2.4824    -7.9684    85.5416 H          1           0.1015
     74 H33         4.3324    -7.0342    84.4668 H          1           0.1239
     75 H34         6.2958    -5.5486    84.5064 H          1           0.1283
     76 H35         7.1239    -4.6594    86.6482 H          1           0.1265
     77 H36         5.9882    -5.2552    88.7501 H          1           0.1236
     78 H37         4.0199    -6.7340    88.7096 H          1           0.1175
     79 H38         1.1402    -6.0933    84.9190 H          1           0.1197
     80 H39        -0.7723    -4.5705    84.7180 H          1           0.1296
     81 H40        -2.1767    -4.0636    86.6730 H          1           0.1279
     82 H41        -1.6773    -5.0805    88.8540 H          1           0.1327
@<TRIPOS>BOND
     1    1    2 2
     2    2    3 am
     3    2   27 1
     4    3    4 1
     5    3   43 1
     6    4   26 1
     7    4    5 1
     8    4   44 1
     9    5    6 1
    10    5   45 1
    11    5   46 1
    12    6    7 1
    13    6   47 1
    14    6   48 1
    15    7    8 1
    16    7   25 1
    17    7   49 1
    18    8    9 1
    19    8   50 1
    20    8   51 1
    21    9   10 1
    22    9   15 1
    23    9   11 1
    24   11   12 1
    25   11   52 1
    26   11   53 1
    27   12   13 1
    28   12   54 1
    29   12   55 1
    30   13   14 1
    31   13   16 1
    32   13   56 1
    33   14   15 1
    34   14   57 1
    35   14   58 1
    36   15   59 1
    37   15   60 1
    38   16   24 1
    39   16   17 2
    40   17   18 1
    41   17   61 1
    42   18   19 1
    43   18   62 1
    44   19   24 ar
    45   19   20 ar
    46   20   21 ar
    47   20   63 1
    48   21   22 ar
    49   21   64 1
    50   22   23 ar
    51   22   65 1
    52   23   24 ar
    53   23   66 1
    54   25   26 1
    55   25   67 1
    56   25   68 1
    57   26   69 1
    58   26   70 1
    59   27   42 1
    60   27   28 2
    61   28   29 1
    62   28   71 1
    63   29   30 1
    64   29   37 1
    65   30   31 1
    66   30   72 1
    67   30   73 1
    68   31   36 ar
    69   31   32 ar
    70   32   33 ar
    71   32   74 1
    72   33   34 ar
    73   33   75 1
    74   34   35 ar
    75   34   76 1
    76   35   36 ar
    77   35   77 1
    78   36   78 1
    79   37   42 ar
    80   37   38 ar
    81   38   39 ar
    82   38   79 1
    83   39   40 ar
    84   39   80 1
    85   40   41 ar
    86   40   81 1
    87   41   42 ar
    88   41   82 1
##########                 Name:              T527069
##########          Protonation:                   41
##########               SMILES:   C[C@@H]1C[NH+](C[C@H](N1)C)CCCn2c3ccccc3c4c2cc(cc4)C(=O)CCC[NH+](C)C
##########            Long Name:   hylpiperazin-1-ium-1-yl]propyl]carbazol-2-yl]-4-oxo-butyl]-dimethyl-ammonium
##########          FlexRecCode: 1
##########               Number:                  128
##########   Ligand Source File: /raidb/db2/rgc/tcams/tcams-0000238.db2.gz
##########           GlobalRank: 371
##########                 Rank:                    1
##########               Setnum:                  310
##########             Matchnum:                 3661
##########                Cloud:                    1
##########        Electrostatic:           -43.192726
##########        Van der Waals:           -25.112284
##########  Ligand Polar Desolv:             7.171396
########## Ligand Apolar Desolv:            -3.389017
##########      Internal Energy:             0.000000
##########      Receptor Energy: 0.0
########## Receptor Desolvation:             0.000000
########## Receptor Hydrophobic:             0.000000
##########         Total Energy: -64.52
##########        Ligand Charge:             2.000000
##########            Arbitrary:    +999.9990
##########     heavy atom count:   32
##########           pose count:    1
##########        Ligand Energy:             0.000000
# num electro vdwattr vdwrepu polsolv apolsol rdesolv rhydroe totalscore fullpol fullapo
#   1    3.38   -1.04    0.13   -1.61   -0.08    0.00    0.00       0.78   -3.78   -0.19
#   2   -1.33   -0.63    0.04    0.57   -0.09    0.00    0.00      -1.44    1.70   -0.27
#   3    0.04   -0.52    0.03    0.17   -0.09    0.00    0.00      -0.39    0.61   -0.34
#   4    5.80   -0.48    0.02   -2.74    0.05    0.00    0.00       2.65  -13.33    0.26
#   5   -6.15   -0.01    0.00    2.11    0.06    0.00    0.00      -4.00   16.36    0.43
#   6    0.12   -0.38    0.02    0.12   -0.07    0.00    0.00      -0.20    0.59   -0.35
#   7    4.03   -0.52    0.02   -1.45   -0.06    0.00    0.00       2.01   -5.25   -0.22
#   8   -3.53   -0.79    0.13    0.83   -0.15    0.00    0.00      -3.50    2.49   -0.44
#   9    9.00   -0.95    0.10   -2.88    0.32    0.00    0.00       5.58  -10.48    1.15
#  10   -1.64   -1.14    0.16    0.73   -0.23    0.00    0.00      -2.12    2.35   -0.73
#  11    1.77   -1.24    0.11   -0.93   -0.17    0.00    0.00      -0.47   -2.48   -0.46
#  12    0.65   -1.68    0.38   -0.71   -0.19    0.00    0.00      -1.54   -1.73   -0.47
#  13    0.96   -1.40    0.18   -1.04   -0.19    0.00    0.00      -1.49   -2.56   -0.47
#  14    0.31   -1.16    0.12   -0.47   -0.17    0.00    0.00      -1.38   -1.36   -0.48
#  15    0.80   -1.16    0.21   -0.72   -0.13    0.00    0.00      -0.99   -2.51   -0.44
#  16    0.44   -0.85    0.13   -0.54   -0.10    0.00    0.00      -0.91   -2.33   -0.44
#  17    0.40   -0.55    0.05   -0.38   -0.08    0.00    0.00      -0.56   -2.12   -0.47
#  18    0.61   -0.27    0.01   -0.23   -0.05    0.00    0.00       0.07   -1.97   -0.44
#  19    1.60   -0.27    0.01   -0.42   -0.05    0.00    0.00       0.87   -3.54   -0.41
#  20    1.35   -0.52    0.03   -0.36   -0.09    0.00    0.00       0.41   -1.82   -0.44
#  21   -1.78   -0.74    0.08    0.53   -0.17    0.00    0.00      -2.09    2.21   -0.73
#  22   -4.01   -0.19    0.00    0.77   -0.02    0.00    0.00      -3.45   10.12   -0.31
#  23    4.94   -0.24    0.00   -1.31    0.04    0.00    0.00       3.44  -11.27    0.38
#  24    1.01   -0.09    0.00   -0.31   -0.01    0.00    0.00       0.60   -5.11   -0.19
#  25    1.24   -0.16    0.00   -0.45   -0.02    0.00    0.00       0.62   -4.69   -0.18
#  26    0.17   -0.33    0.01    0.05   -0.07    0.00    0.00      -0.16    0.28   -0.35
#  27    8.03   -0.65    0.04   -4.23    0.14    0.00    0.00       3.32  -13.75    0.46
#  28   -7.68   -0.01    0.00    3.30    0.10    0.00    0.00      -4.29   18.02    0.56
#  29    1.62   -1.06    0.14   -0.84   -0.20    0.00    0.00      -0.33   -1.99   -0.47
#  30    1.03   -0.57    0.05   -0.48   -0.14    0.00    0.00      -0.11   -1.66   -0.48
#  31    0.02   -0.36    0.02    0.10   -0.07    0.00    0.00      -0.30    0.47   -0.34
#  32   -0.53   -0.55    0.05    0.57   -0.10    0.00    0.00      -0.56    1.99   -0.36
#  33    3.73   -1.32    0.42   -2.56   -0.07    0.00    0.00       0.20   -5.82   -0.17
#  34   11.59   -1.00    0.20   -5.23    0.68    0.00    0.00       6.24  -18.83    2.45
#  35   -1.85   -0.64    0.35    0.13   -0.11    0.00    0.00      -2.12    0.34   -0.28
#  36   -1.28   -0.39    0.11    0.56   -0.08    0.00    0.00      -1.07    1.94   -0.28
#  37   -1.89   -0.27    0.02    0.39   -0.09    0.00    0.00      -1.84    1.27   -0.28
#  38   -2.01   -0.29    0.06    0.51   -0.05    0.00    0.00      -1.79    1.96   -0.21
#  39   -2.63   -0.20    0.03    0.94   -0.05    0.00    0.00      -1.91    5.24   -0.28
#  40   -3.52   -0.21    0.01    1.49   -0.06    0.00    0.00      -2.29    6.63   -0.28
#  41   -1.23   -0.13    0.01    0.73   -0.03    0.00    0.00      -0.64    6.57   -0.28
#  42   -3.41   -0.13    0.01    0.88   -0.04    0.00    0.00      -2.69    7.00   -0.28
#  43   -2.81   -0.20    0.01    0.56   -0.05    0.00    0.00      -2.50    2.88   -0.28
#  44   -1.52   -0.16    0.01    0.49   -0.03    0.00    0.00      -1.21    3.18   -0.21
#  45   -4.35   -0.67    1.20    0.92   -0.07    0.00    0.00      -2.97    3.56   -0.27
#  46   -2.91   -0.26    0.02    1.10   -0.09    0.00    0.00      -2.13    3.43   -0.27
#  47   -1.85   -0.23    0.01    1.05   -0.07    0.00    0.00      -1.08    4.31   -0.28
#  48   -1.67   -0.52    0.34    0.84   -0.09    0.00    0.00      -1.11    2.62   -0.28
#  49   -0.94   -0.29    0.03    0.48   -0.08    0.00    0.00      -0.80    1.59   -0.28
#  50   -0.95   -0.21    0.01    0.33   -0.06    0.00    0.00      -0.87    1.53   -0.28
#  51   -0.75   -0.10    0.01    0.19   -0.02    0.00    0.00      -0.68    2.21   -0.28
#  52   -0.52   -0.03    0.00    0.16   -0.01    0.00    0.00      -0.39    5.34   -0.24
#  53   -3.59   -0.16    0.03    0.53   -0.04    0.00    0.00      -3.23    3.83   -0.26
#  54   -0.48   -0.02    0.00    0.11   -0.01    0.00    0.00      -0.39    4.55   -0.28
#  55   -0.43   -0.03    0.00    0.15   -0.01    0.00    0.00      -0.31    4.99   -0.28
#  56   -0.97   -0.04    0.00    0.11   -0.01    0.00    0.00      -0.91    2.87   -0.28
#  57   -0.46   -0.05    0.00    0.15   -0.01    0.00    0.00      -0.38    2.50   -0.21
#  58   -1.00   -0.11    0.01    0.57   -0.03    0.00    0.00      -0.57    5.56   -0.28
#  59   -2.61   -0.12    0.01    0.81   -0.04    0.00    0.00      -1.95    6.41   -0.28
#  60   -4.65   -0.46    0.11    1.79   -0.12    0.00    0.00      -3.33    4.30   -0.28
#  61   -2.81   -0.31    0.05    1.22   -0.07    0.00    0.00      -1.92    3.99   -0.22
#  62   -4.72   -0.54    0.20    1.55   -0.10    0.00    0.00      -3.62    4.23   -0.28
#  63   -2.95   -0.22    0.02    1.23   -0.07    0.00    0.00      -2.00    4.92   -0.28
#  64   -3.47   -0.34    0.14    1.01   -0.07    0.00    0.00      -2.73    4.20   -0.28
#  65   -1.67   -0.08    0.00    0.31   -0.02    0.00    0.00      -1.46    4.18   -0.28
#  66   -0.97   -0.06    0.00    0.32   -0.02    0.00    0.00      -0.72    5.49   -0.28
#  67   -0.20   -0.21    0.05    0.96   -0.04    0.00    0.00       0.56    5.69   -0.22
#  68   -0.34   -0.16    0.01    0.48   -0.05    0.00    0.00      -0.05    2.76   -0.28
#  69   -1.33   -0.94    1.35    1.17   -0.08    0.00    0.00       0.18    2.58   -0.17
#  70   -0.94   -0.52    0.18    0.17   -0.12    0.00    0.00      -1.23    0.41   -0.28
#  71   -1.96   -0.32    0.09    0.75   -0.09    0.00    0.00      -1.54    2.24   -0.28
#  72   -9.51   -0.04    0.00    2.07    0.15    0.00    0.00      -7.33    8.11    0.57

@<TRIPOS>MOLECULE
          T527069        41
   72    75     0     0     0



@<TRIPOS>ATOM
      1 C1         -0.0800    -3.8649    93.6616 C.3        1          -0.1514
      2 C2          0.4133    -5.2856    93.9430 C.3        1           0.0589
      3 C3          1.9106    -5.3756    93.6403 C.3        1          -0.0018
      4 N1          2.3797    -6.7446    93.8913 N.4        1          -0.3862
      5 H1          2.2064    -6.9878    94.8551 H          1           0.4202
      6 C4          3.8207    -6.8261    93.6175 C.3        1          -0.0065
      7 C5          4.5989    -6.2693    94.8114 C.3        1          -0.1727
      8 C6          6.0997    -6.3541    94.5262 C.3        1           0.1216
      9 N2          6.4769    -7.7526    94.3068 N.pl3      1          -0.5062
     10 C7          6.8787    -8.6277    95.2985 C.ar       1           0.1436
     11 C8          7.0372    -8.4770    96.6732 C.ar       1          -0.1479
     12 C9          7.4614    -9.5406    97.4394 C.ar       1          -0.0679
     13 C10         7.7340   -10.7683    96.8542 C.ar       1          -0.1410
     14 C11         7.5830   -10.9382    95.4956 C.ar       1          -0.0509
     15 C12         7.1550    -9.8707    94.7078 C.ar       1          -0.1145
     16 C13         6.8973    -9.7161    93.2657 C.ar       1          -0.0579
     17 C14         6.9915   -10.5865    92.1785 C.ar       1          -0.0691
     18 C15         6.6796   -10.1516    90.9244 C.ar       1          -0.1029
     19 C16         6.2628    -8.8281    90.7197 C.ar       1          -0.1487
     20 C17         6.1646    -7.9483    91.7991 C.ar       1          -0.0763
     21 C18         6.4763    -8.3890    93.0774 C.ar       1           0.1226
     22 C19         5.9288    -8.3660    89.3649 C.2        1           0.4064
     23 O1          5.0988    -7.4956    89.2084 O.2        1          -0.4549
     24 C20         6.6175    -8.9741    88.1703 C.3        1          -0.1657
     25 C21         7.8850    -8.1782    87.8527 C.3        1          -0.1426
     26 C22         7.5118    -6.7271    87.5424 C.3        1          -0.0122
     27 N3          8.7286    -5.9630    87.2373 N.4        1          -0.3872
     28 H2          9.1898    -6.3700    86.4375 H          1           0.4272
     29 C23         8.3704    -4.5699    86.9393 C.3        1          -0.0540
     30 C24         9.6325    -5.9993    88.3947 C.3        1          -0.0483
     31 C25         1.6617    -7.6788    93.0142 C.3        1          -0.0028
     32 C26         0.1623    -7.6080    93.3117 C.3        1           0.0620
     33 C27        -0.0886    -8.0057    94.7676 C.3        1          -0.2099
     34 N4         -0.3141    -6.2355    93.0892 N.3        1          -0.6785
     35 H3          0.4596    -3.1608    94.2949 H          1           0.0786
     36 H4          0.0959    -3.6201    92.6142 H          1           0.0765
     37 H5         -1.1471    -3.8018    93.8752 H          1           0.0775
     38 H6          0.2383    -5.5306    94.9907 H          1           0.0680
     39 H7          2.0863    -5.1171    92.5960 H          1           0.1390
     40 H8          2.4535    -4.6819    94.2824 H          1           0.1364
     41 H9          4.1013    -7.8666    93.4543 H          1           0.1352
     42 H10         4.0549    -6.2425    92.7271 H          1           0.1370
     43 H11         4.3184    -5.2288    94.9746 H          1           0.0952
     44 H12         4.3648    -6.8527    95.7018 H          1           0.0930
     45 H13         6.3339    -5.7706    93.6358 H          1           0.0983
     46 H14         6.6541    -5.9575    95.3769 H          1           0.1017
     47 H15         6.8278    -7.5256    97.1395 H          1           0.1226
     48 H16         7.5831    -9.4173    98.5055 H          1           0.1360
     49 H17         8.0662   -11.5940    97.4659 H          1           0.1358
     50 H18         7.7962   -11.8949    95.0421 H          1           0.1321
     51 H19         7.3123   -11.6064    92.3310 H          1           0.1379
     52 H20         6.7543   -10.8282    90.0860 H          1           0.1368
     53 H21         5.8439    -6.9293    91.6402 H          1           0.1314
     54 H22         6.8834   -10.0078    88.3913 H          1           0.1146
     55 H23         5.9468    -8.9471    87.3115 H          1           0.1141
     56 H24         8.5557    -8.2051    88.7113 H          1           0.0929
     57 H25         8.3832    -8.6180    86.9886 H          1           0.0945
     58 H26         6.8410    -6.7002    86.6835 H          1           0.1326
     59 H27         7.0135    -6.2875    88.4062 H          1           0.1332
     60 H28         9.2733    -4.0029    86.7131 H          1           0.1262
     61 H29         7.6996    -4.5429    86.0807 H          1           0.1240
     62 H30         7.8722    -4.1301    87.8034 H          1           0.1236
     63 H31        10.5356    -5.4323    88.1686 H          1           0.1243
     64 H32         9.1343    -5.5595    89.2588 H          1           0.1262
     65 H33         9.8983    -7.0330    88.6158 H          1           0.1233
     66 H34         1.8386    -7.4085    91.9732 H          1           0.1383
     67 H35         2.0200    -8.6926    93.1922 H          1           0.1322
     68 H36        -0.3722    -8.2905    92.6510 H          1           0.1308
     69 H37        -1.1566    -7.9552    94.9792 H          1           0.0529
     70 H38         0.2670    -9.0227    94.9329 H          1           0.0875
     71 H39         0.4454    -7.3225    95.4282 H          1           0.0807
     72 H40        -1.3094    -6.1692    93.2410 H          1           0.3747
@<TRIPOS>BOND
     1    1    2 1
     2    1   35 1
     3    1   36 1
     4    1   37 1
     5    2   34 1
     6    2    3 1
     7    2   38 1
     8    3    4 1
     9    3   39 1
    10    3   40 1
    11    4    5 1
    12    4    6 1
    13    4   31 1
    14    6    7 1
    15    6   41 1
    16    6   42 1
    17    7    8 1
    18    7   43 1
    19    7   44 1
    20    8    9 1
    21    8   45 1
    22    8   46 1
    23    9   21 1
    24    9   10 1
    25   10   15 ar
    26   10   11 ar
    27   11   12 ar
    28   11   47 1
    29   12   13 ar
    30   12   48 1
    31   13   14 ar
    32   13   49 1
    33   14   15 ar
    34   14   50 1
    35   15   16 1
    36   16   21 ar
    37   16   17 ar
    38   17   18 ar
    39   17   51 1
    40   18   19 ar
    41   18   52 1
    42   19   20 ar
    43   19   22 1
    44   20   21 ar
    45   20   53 1
    46   22   23 2
    47   22   24 1
    48   24   25 1
    49   24   54 1
    50   24   55 1
    51   25   26 1
    52   25   56 1
    53   25   57 1
    54   26   27 1
    55   26   58 1
    56   26   59 1
    57   27   28 1
    58   27   29 1
    59   27   30 1
    60   29   60 1
    61   29   61 1
    62   29   62 1
    63   30   63 1
    64   30   64 1
    65   30   65 1
    66   31   32 1
    67   31   66 1
    68   31   67 1
    69   32   33 1
    70   32   34 1
    71   32   68 1
    72   33   69 1
    73   33   70 1
    74   33   71 1
    75   34   72 1
##########                 Name:              T531915
##########          Protonation:                   17
##########               SMILES:   cc2c(n1)c(c(cn2)F)CC[NH+]3C[C@H]([C@@H](C3)O)C[NH2+]Cc4cc5c(c(c4)F)OCC(=O)N5
##########            Long Name:   in-1-ium-3-yl]methyl-[(8-fluoro-3-oxo-4H-1,4-benzoxazin-6-yl)methyl]ammonium
##########          FlexRecCode: 1
##########               Number:                  133
##########   Ligand Source File: /raidb/db2/rgc/tcams/tcams-0000881.db2.gz
##########           GlobalRank: 371
##########                 Rank:                    1
##########               Setnum:                  107
##########             Matchnum:                 1509
##########                Cloud:                    1
##########        Electrostatic:           -50.773827
##########        Van der Waals:           -25.413120
##########  Ligand Polar Desolv:            12.798268
########## Ligand Apolar Desolv:            -1.134631
##########      Internal Energy:             0.000000
##########      Receptor Energy: 0.0
########## Receptor Desolvation:             0.000000
########## Receptor Hydrophobic:             0.000000
##########         Total Energy: -64.52
##########        Ligand Charge:             2.000000
##########            Arbitrary:    +999.9990
##########     heavy atom count:   36
##########           pose count:    1
##########        Ligand Energy:             0.000000
# num electro vdwattr vdwrepu polsolv apolsol rdesolv rhydroe totalscore fullpol fullapo
#   1   -0.18   -1.27    0.30    0.13    0.01    0.00    0.00      -1.00    0.32    0.03
#   2    2.81   -1.43    0.32   -3.38    0.39    0.00    0.00      -1.29   -7.87    0.90
#   3   -4.97   -1.47    0.18    3.55   -0.30    0.00    0.00      -3.01    7.87   -0.66
#   4    2.87   -2.30    0.58   -1.83   -0.25    0.00    0.00      -0.93   -3.34   -0.46
#   5   -0.17   -3.83    2.94   -0.48   -0.26    0.00    0.00      -1.80   -0.87   -0.48
#   6   -0.93   -2.59    1.34   -0.17   -0.35    0.00    0.00      -2.69   -0.35   -0.73
#   7   11.67   -3.75    3.21   -4.43    1.12    0.00    0.00       7.81   -7.94    2.00
#   8   -4.02   -3.18    1.72    0.66   -0.53    0.00    0.00      -5.35    1.20   -0.97
#   9   -3.93   -2.19    1.87    0.69   -0.14    0.00    0.00      -3.71    1.67   -0.34
#  10    5.53   -2.15    4.12   -0.98   -0.16    0.00    0.00       6.36   -2.70   -0.45
#  11    2.38   -0.97    0.09   -0.18   -0.11    0.00    0.00       1.21   -0.58   -0.36
#  12    1.20   -0.49    0.04   -0.94   -0.05    0.00    0.00      -0.24   -3.92   -0.22
#  13    0.00   -0.43    0.03    0.32   -0.08    0.00    0.00      -0.15    1.40   -0.35
#  14   10.11   -0.85    0.20   -4.43    0.10    0.00    0.00       5.13  -18.32    0.42
#  15  -17.22   -0.04    0.00    5.48    0.14    0.00    0.00     -11.63   21.61    0.56
#  16    0.97   -0.45    0.06   -0.57   -0.07    0.00    0.00      -0.06   -2.97   -0.38
#  17   -1.39   -0.32    0.02    0.62   -0.03    0.00    0.00      -1.09    3.68   -0.15
#  18    8.33   -0.65    0.05   -6.29    0.40    0.00    0.00       1.84  -27.23    1.71
#  19    3.41   -0.61    0.09   -1.57   -0.05    0.00    0.00       1.28   -6.42   -0.19
#  20    0.04   -0.29    0.01    0.03   -0.06    0.00    0.00      -0.26    0.19   -0.34
#  21    9.95   -0.54    0.03   -7.45    0.19    0.00    0.00       2.19  -28.04    0.73
#  22   -6.98   -0.01    0.00    2.82    0.05    0.00    0.00      -4.11   25.48    0.48
#  23  -12.00   -0.02    0.00    5.75    0.13    0.00    0.00      -6.13   24.80    0.57
#  24   -0.78   -0.57    0.07    1.06   -0.11    0.00    0.00      -0.33    4.02   -0.42
#  25    1.35   -0.73    0.06   -0.51   -0.09    0.00    0.00       0.08   -2.01   -0.37
#  26    0.26   -0.45    0.02   -0.36   -0.08    0.00    0.00      -0.60   -2.07   -0.45
#  27   -0.23   -0.38    0.01    0.25   -0.10    0.00    0.00      -0.45    1.70   -0.70
#  28   -0.28   -0.71    0.06   -0.27   -0.08    0.00    0.00      -1.29   -1.08   -0.30
#  29   -0.02   -0.71    0.08   -1.31    0.23    0.00    0.00      -1.73   -5.23    0.92
#  30   -0.01   -0.26    0.01    0.10   -0.02    0.00    0.00      -0.18    0.62   -0.14
#  31   -0.20   -0.20    0.00    0.54   -0.05    0.00    0.00       0.10    6.99   -0.67
#  32    0.08   -0.09    0.00   -0.26    0.02    0.00    0.00      -0.25   -5.79    0.43
#  33    0.62   -0.20    0.00   -1.15    0.14    0.00    0.00      -0.59  -13.82    1.69
#  34   -1.88   -1.49    0.38    0.11   -0.12    0.00    0.00      -3.01    0.31   -0.34
#  35    1.96   -2.18    1.76   -1.60   -0.22    0.00    0.00      -0.28   -3.36   -0.47
#  36    2.44   -1.39    0.37   -1.03   -0.16    0.00    0.00       0.23   -2.93   -0.45
#  37   -0.17   -0.69    0.14    0.02   -0.10    0.00    0.00      -0.79    0.10   -0.43
#  38   -2.98   -1.29    0.17    1.22   -0.28    0.00    0.00      -3.17    3.22   -0.73
#  39    6.91   -1.17    0.10   -4.36    0.92    0.00    0.00       2.40  -12.09    2.54
#  40   -0.47   -0.41    0.08    1.22   -0.10    0.00    0.00       0.32    3.25   -0.28
#  41    0.08   -0.72    0.36    0.87   -0.11    0.00    0.00       0.48    2.25   -0.28
#  42   -0.30   -0.20    0.01    1.08   -0.06    0.00    0.00       0.54    5.06   -0.28
#  43   -3.44   -0.48    0.08    1.55   -0.15    0.00    0.00      -2.44    2.96   -0.28
#  44   -3.48   -1.24    1.25    1.24   -0.17    0.00    0.00      -2.40    2.09   -0.28
#  45   -8.90   -1.00    0.71    1.88   -0.16    0.00    0.00      -7.48    3.24   -0.28
#  46   -0.37   -0.30    0.15    0.89   -0.04    0.00    0.00       0.34    5.14   -0.23
#  47   -1.47   -0.11    0.01    0.44   -0.03    0.00    0.00      -1.16    4.34   -0.26
#  48   -1.82   -0.21    0.05    0.94   -0.04    0.00    0.00      -1.09    5.94   -0.28
#  49   -1.10   -0.09    0.01    0.65   -0.02    0.00    0.00      -0.56    7.06   -0.27
#  50   -2.04   -0.06    0.00    0.51   -0.01    0.00    0.00      -1.60    9.21   -0.26
#  51   -4.95   -0.29    0.10    1.09   -0.05    0.00    0.00      -4.11    5.80   -0.26
#  52   -1.14   -0.04    0.00    0.36   -0.01    0.00    0.00      -0.83    9.44   -0.24
#  53  -11.56   -0.03    0.00    4.71    0.32    0.00    0.00      -6.56   17.91    1.22
#  54   -5.33   -0.57    0.34    1.99   -0.08    0.00    0.00      -3.65    6.74   -0.27
#  55   -2.25   -0.09    0.00    0.91   -0.02    0.00    0.00      -1.45   10.76   -0.28
#  56   -1.48   -0.04    0.00    0.50   -0.01    0.00    0.00      -1.03   12.48   -0.28
#  57   -1.08   -0.16    0.04    1.33   -0.04    0.00    0.00       0.10   10.26   -0.28
#  58   -3.59   -0.37    0.11    3.46   -0.08    0.00    0.00      -0.47   11.91   -0.28
#  59   -0.31   -0.06    0.00    0.62   -0.02    0.00    0.00       0.24   10.87   -0.28
#  60   -0.12   -0.08    0.00    0.11   -0.02    0.00    0.00      -0.10    1.60   -0.28
#  61    0.03   -0.07    0.00    0.16   -0.02    0.00    0.00       0.10    1.96   -0.28
#  62   -0.39    0.00    0.00    0.31    0.02    0.00    0.00      -0.06   11.18    0.59
#  63   -4.52   -0.36    0.07    2.87   -0.10    0.00    0.00      -2.04    8.44   -0.28
#  64   -3.42   -0.69    0.85    2.33   -0.08    0.00    0.00      -1.01    7.95   -0.28
#  65   -1.93   -0.10    0.01    0.97   -0.02    0.00    0.00      -1.07   10.36   -0.26

@<TRIPOS>MOLECULE
          T531915        17
   65    69     0     0     0



@<TRIPOS>ATOM
      1 C1          7.1941   -10.9639    96.8940 C.3        1           0.0402
      2 O1          7.8713    -9.9931    97.6947 O.3        1          -0.2898
      3 C2          7.7451    -8.6946    97.3258 C.ar       1           0.3790
      4 C3          8.3938    -7.7040    98.0739 C.ar       1          -0.1601
      5 C4          8.2770    -6.3947    97.7155 C.ar       1           0.0087
      6 C5          7.4945    -6.0766    96.5855 C.ar       1           0.0417
      7 N1          7.3441    -4.8115    96.1866 N.ar       1          -0.3999
      8 C6          6.6189    -4.5089    95.1375 C.ar       1           0.0979
      9 C7          5.9705    -5.4928    94.3890 C.ar       1           0.1012
     10 F1          5.2309    -5.1463    93.3128 F          1          -0.1162
     11 C8          6.0852    -6.8078    94.7461 C.ar       1          -0.1009
     12 C9          5.3949    -7.8876    93.9533 C.3        1          -0.0888
     13 C10         6.3261    -8.3800    92.8436 C.3        1          -0.0002
     14 N2          6.6638    -7.2601    91.9550 N.4        1          -0.3912
     15 H1          6.8165    -6.4236    92.4982 H          1           0.4382
     16 C11         5.5789    -7.0405    90.9934 C.3        1          -0.0420
     17 C12         6.2157    -7.1333    89.5977 C.3        1           0.0758
     18 O2          5.6167    -6.2003    88.6962 O.3        1          -0.5475
     19 C13         7.6730    -6.7429    89.9130 C.3        1          -0.1404
     20 C14         8.6256    -7.1832    88.7995 C.3        1          -0.0027
     21 N3          8.5609    -6.2214    87.6912 N.4        1          -0.5122
     22 H2          7.6185    -6.1842    87.3325 H          1           0.4272
     23 H3          8.8308    -5.3073    88.0228 H          1           0.4367
     24 C15         9.4754    -6.6441    86.6221 C.3        1           0.0517
     25 C16        10.8831    -6.6995    87.1576 C.ar       1          -0.1387
     26 C17        11.6924    -7.7801    86.8580 C.ar       1          -0.1160
     27 C18        12.9866    -7.8300    87.3499 C.ar       1           0.1391
     28 C19        13.4700    -6.7929    88.1450 C.ar       1           0.0802
     29 O3         14.7428    -6.8517    88.6217 O.3        1          -0.2830
     30 C20        15.7104    -7.4986    87.7909 C.3        1           0.0464
     31 C21        15.1502    -8.7999    87.2754 C.2        1           0.4900
     32 O4         15.8886    -9.7371    87.0570 O.2        1          -0.4708
     33 N4         13.8223    -8.9174    87.0577 N.am       1          -0.6643
     34 C22        12.6539    -5.7133    88.4419 C.ar       1           0.1279
     35 F2         13.1181    -4.7053    89.2124 F          1          -0.1048
     36 C23        11.3628    -5.6673    87.9423 C.ar       1          -0.1215
     37 C24         7.8672    -7.5807    91.1832 C.3        1           0.0080
     38 C25         6.8656    -7.1264    95.8739 C.ar       1           0.1554
     39 N5          7.0204    -8.3936    96.2699 N.ar       1          -0.5573
     40 H4          7.3775   -11.9596    97.2977 H          1           0.1050
     41 H5          6.1234   -10.7595    96.9033 H          1           0.0617
     42 H6          7.5649   -10.9129    95.8703 H          1           0.0500
     43 H7          8.9860    -7.9778    98.9346 H          1           0.1648
     44 H8          8.7710    -5.6195    98.2825 H          1           0.1697
     45 H9          6.5203    -3.4738    94.8455 H          1           0.1865
     46 H10         5.1442    -8.7186    94.6127 H          1           0.1108
     47 H11         4.4828    -7.4868    93.5110 H          1           0.1030
     48 H12         7.2381    -8.7808    93.2859 H          1           0.1381
     49 H13         5.8267    -9.1609    92.2702 H          1           0.1362
     50 H14         4.8148    -7.8093    91.1085 H          1           0.1486
     51 H15         5.1417    -6.0531    91.1408 H          1           0.1496
     52 H16         6.1555    -8.1485    89.2058 H          1           0.1050
     53 H17         5.7016    -5.2772    88.9714 H          1           0.4134
     54 H18         7.7663    -5.6761    90.1164 H          1           0.1472
     55 H19         9.6435    -7.2233    89.1870 H          1           0.1571
     56 H20         8.3340    -8.1705    88.4413 H          1           0.1456
     57 H21         9.1839    -7.6313    86.2638 H          1           0.1508
     58 H22         9.4276    -5.9302    85.7997 H          1           0.1471
     59 H23        11.3165    -8.5835    86.2419 H          1           0.1483
     60 H24        15.9562    -6.8510    86.9492 H          1           0.1646
     61 H25        16.6118    -7.6963    88.3707 H          1           0.1165
     62 H26        13.4522    -9.7416    86.7044 H          1           0.4232
     63 H27        10.7275    -4.8239    88.1694 H          1           0.1578
     64 H28         8.7657    -7.2720    91.7176 H          1           0.1562
     65 H29         7.9058    -8.6439    90.9464 H          1           0.1461
@<TRIPOS>BOND
     1    1    2 1
     2    1   40 1
     3    1   41 1
     4    1   42 1
     5    2    3 1
     6    3   39 ar
     7    3    4 ar
     8    4    5 ar
     9    4   43 1
    10    5    6 ar
    11    5   44 1
    12    6   38 ar
    13    6    7 ar
    14    7    8 ar
    15    8    9 ar
    16    8   45 1
    17    9   10 1
    18    9   11 ar
    19   11   12 1
    20   11   38 ar
    21   12   13 1
    22   12   46 1
    23   12   47 1
    24   13   14 1
    25   13   48 1
    26   13   49 1
    27   14   15 1
    28   14   37 1
    29   14   16 1
    30   16   17 1
    31   16   50 1
    32   16   51 1
    33   17   18 1
    34   17   19 1
    35   17   52 1
    36   18   53 1
    37   19   20 1
    38   19   37 1
    39   19   54 1
    40   20   21 1
    41   20   55 1
    42   20   56 1
    43   21   22 1
    44   21   23 1
    45   21   24 1
    46   24   25 1
    47   24   57 1
    48   24   58 1
    49   25   36 ar
    50   25   26 ar
    51   26   27 ar
    52   26   59 1
    53   27   33 1
    54   27   28 ar
    55   28   29 1
    56   28   34 ar
    57   29   30 1
    58   30   31 1
    59   30   60 1
    60   30   61 1
    61   31   32 2
    62   31   33 am
    63   33   62 1
    64   34   35 1
    65   34   36 ar
    66   36   63 1
    67   37   64 1
    68   37   65 1
    69   38   39 ar
##########                 Name:              T542630
##########          Protonation:                   13
##########               SMILES:   CN1CC[NH+](CC1)Cc2ccc(o2)c3ccc4c(cc[nH+]c4c3)Nc5ccc(cc5Cl)F
##########            Long Name:   )-7-[5-[(4-methylpiperazin-1-ium-1-yl)methyl]-2-furyl]quinolin-1-ium-4-amine
##########          FlexRecCode: 1
##########               Number:                  114
##########   Ligand Source File: /raidb/db2/rgc/tcams/tcams-0002292.db2.gz
##########           GlobalRank: 371
##########                 Rank:                    1
##########               Setnum:                  200
##########             Matchnum:                  578
##########                Cloud:                    1
##########        Electrostatic:           -38.252243
##########        Van der Waals:           -36.387123
##########  Ligand Polar Desolv:            13.615335
########## Ligand Apolar Desolv:            -3.497386
##########      Internal Energy:             0.000000
##########      Receptor Energy: 0.0
########## Receptor Desolvation:             0.000000
########## Receptor Hydrophobic:             0.000000
##########         Total Energy: -64.52
##########        Ligand Charge:             2.000000
##########            Arbitrary:    +999.9990
##########     heavy atom count:   32
##########           pose count:    1
##########        Ligand Energy:             0.000000
# num electro vdwattr vdwrepu polsolv apolsol rdesolv rhydroe totalscore fullpol fullapo
#   1   -0.13   -1.22    0.37    0.08   -0.17    0.00    0.00      -1.07    0.22   -0.48
#   2   17.68   -2.14    0.66   -7.41    1.60    0.00    0.00      10.38  -16.90    3.64
#   3   -0.89   -1.08    0.30    0.24   -0.16    0.00    0.00      -1.60    0.63   -0.44
#   4    1.14   -0.55    0.05   -0.20   -0.10    0.00    0.00       0.34   -0.73   -0.37
#   5    7.66   -1.28    0.46   -4.71    0.09    0.00    0.00       2.21  -14.31    0.28
#   6  -16.02   -0.08    0.01    6.61    0.18    0.00    0.00      -9.30   19.08    0.53
#   7   -0.54   -0.55    0.07    0.95   -0.09    0.00    0.00      -0.16    4.12   -0.39
#   8    0.77   -0.93    0.13   -0.25   -0.07    0.00    0.00      -0.35   -1.03   -0.27
#   9    0.50   -0.98    0.14   -1.58   -0.11    0.00    0.00      -2.02   -6.13   -0.43
#  10    2.15   -0.87    0.12   -1.52   -0.12    0.00    0.00      -0.24   -6.08   -0.48
#  11   -0.98   -1.03    0.21    0.06   -0.08    0.00    0.00      -1.82    0.25   -0.32
#  12    4.01   -0.88    0.14   -1.31    0.07    0.00    0.00       2.03   -5.22    0.27
#  13   -1.98   -1.06    0.31    0.25   -0.09    0.00    0.00      -2.58    1.07   -0.41
#  14    3.05   -1.74    1.42   -0.82   -0.12    0.00    0.00       1.79   -3.08   -0.44
#  15    1.16   -1.19    0.24   -0.72   -0.13    0.00    0.00      -0.64   -2.44   -0.45
#  16    2.34   -0.81    0.04   -0.99   -0.11    0.00    0.00       0.47   -3.47   -0.40
#  17   -5.84   -1.19    0.12    3.35   -0.24    0.00    0.00      -3.81    8.72   -0.63
#  18   10.77   -1.46    0.25   -7.53    0.39    0.00    0.00       2.41  -17.39    0.91
#  19   -1.76   -1.34    0.12    2.00   -0.29    0.00    0.00      -1.27    4.79   -0.69
#  20    0.92   -1.31    0.16   -0.94   -0.13    0.00    0.00      -1.31   -2.69   -0.38
#  21    0.54   -1.46    0.19   -0.71   -0.18    0.00    0.00      -1.61   -1.88   -0.47
#  22   -0.92   -1.55    0.30   -0.02   -0.16    0.00    0.00      -2.35   -0.05   -0.34
#  23    0.87   -0.80    0.05   -1.17   -0.27    0.00    0.00      -1.32   -2.07   -0.48
#  24    1.31   -1.89    0.60   -1.02   -0.22    0.00    0.00      -1.23   -2.11   -0.46
#  25    0.58   -1.75    0.25   -0.84   -0.16    0.00    0.00      -1.92   -1.60   -0.30
#  26    0.67   -6.42    2.36   -0.76   -0.59    0.00    0.00      -4.73   -1.21   -0.94
#  27    3.65   -1.89    0.33   -3.69   -0.16    0.00    0.00      -1.76   -8.28   -0.35
#  28   -4.21   -1.52    0.19    5.34   -0.44    0.00    0.00      -0.64   11.60   -0.96
#  29    9.09   -0.84    0.03   -5.81    0.32    0.00    0.00       2.79  -17.42    0.97
#  30   -9.07   -0.01    0.00    2.67    0.07    0.00    0.00      -6.33   20.74    0.58
#  31   -3.44   -0.69    0.03    1.47   -0.18    0.00    0.00      -2.81    5.89   -0.72
#  32    2.89   -0.64    0.03   -0.81   -0.10    0.00    0.00       1.38   -3.63   -0.45
#  33    1.06   -1.10    0.23   -0.44   -0.14    0.00    0.00      -0.38   -1.12   -0.35
#  34   -1.14   -1.61    0.42    0.42   -0.21    0.00    0.00      -2.11    0.90   -0.44
#  35   -1.30   -0.20    0.02    0.13   -0.06    0.00    0.00      -1.40    0.65   -0.28
#  36   -1.66   -0.27    0.07    0.20   -0.07    0.00    0.00      -1.73    0.87   -0.28
#  37   -1.03   -1.02    1.45    1.23   -0.07    0.00    0.00       0.56    2.93   -0.17
#  38   -2.95   -0.21    0.03    0.49   -0.06    0.00    0.00      -2.70    2.36   -0.28
#  39   -3.96   -1.07    2.00    1.60   -0.12    0.00    0.00      -1.54    3.84   -0.28
#  40   -2.01   -0.08    0.00    0.39   -0.02    0.00    0.00      -1.72    5.44   -0.22
#  41   -3.51   -0.16    0.01    1.31   -0.04    0.00    0.00      -2.39    8.22   -0.28
#  42   -0.59   -0.22    0.04    1.38   -0.05    0.00    0.00       0.56    8.02   -0.28
#  43   -0.89   -0.07    0.00    0.58   -0.02    0.00    0.00      -0.40    8.67   -0.28
#  44   -0.41   -0.21    0.04    1.17   -0.05    0.00    0.00       0.54    6.18   -0.28
#  45   -1.77   -0.15    0.02    0.60   -0.04    0.00    0.00      -1.33    4.19   -0.25
#  46   -5.77   -0.41    0.27    1.03   -0.06    0.00    0.00      -4.95    4.28   -0.24
#  47   -4.16   -0.39    0.15    1.07   -0.06    0.00    0.00      -3.39    4.00   -0.24
#  48   -8.07   -0.04    0.00    3.77    0.16    0.00    0.00      -4.18   10.79    0.45
#  49   -0.78   -0.25    0.05    1.44   -0.04    0.00    0.00       0.43    7.14   -0.18
#  50   -0.38   -0.32    0.05    1.11   -0.08    0.00    0.00       0.38    4.08   -0.28
#  51   -2.35   -0.42    0.10    0.59   -0.12    0.00    0.00      -2.20    1.42   -0.28
#  52   -2.85   -0.60    0.17    3.22   -0.11    0.00    0.00      -0.17    6.63   -0.23
#  53   -4.55   -0.45    0.16    5.69   -0.12    0.00    0.00       0.73   13.31   -0.28
#  54   -2.88   -0.10    0.00    0.75   -0.03    0.00    0.00      -2.25    8.07   -0.27
#  55   -1.72   -0.46    0.27    1.30   -0.05    0.00    0.00      -0.66    5.46   -0.22
#  56   -1.45   -0.40    0.10    1.74   -0.06    0.00    0.00      -0.09    5.62   -0.21
#  57   -4.31   -0.91    0.68    1.75   -0.14    0.00    0.00      -2.93    3.58   -0.28
#  58   -4.78   -0.76    0.64    0.90   -0.12    0.00    0.00      -4.12    2.05   -0.28

@<TRIPOS>MOLECULE
          T542630        13
   58    62     0     0     0



@<TRIPOS>ATOM
      1 C1         10.1534    -5.7577    86.2085 C.3        1           0.0051
      2 N1          9.7074    -4.6290    87.0362 N.3        1          -0.5285
      3 C2          9.2475    -5.0912    88.3534 C.3        1           0.0306
      4 C3          7.9971    -5.9559    88.1792 C.3        1          -0.0502
      5 N2          6.9450    -5.1690    87.5225 N.4        1          -0.3818
      6 H1          6.7301    -4.3594    88.0850 H          1           0.4241
      7 C4          5.7389    -5.9940    87.3716 C.3        1           0.0858
      8 C5          4.9880    -6.0297    88.6776 C.2        1          -0.0723
      9 C6          3.6561    -5.8826    88.8225 C.2        1          -0.1414
     10 C7          3.3771    -5.9829    90.1999 C.2        1          -0.1557
     11 C8          4.5667    -6.1881    90.8265 C.2        1           0.0387
     12 O1          5.5341    -6.2194    89.8896 O.3        1          -0.1588
     13 C9          4.7630    -6.3534    92.2811 C.ar       1           0.0684
     14 C10         6.0574    -6.5539    92.7916 C.ar       1          -0.0899
     15 C11         6.2598    -6.7083    94.1263 C.ar       1          -0.0420
     16 C12         5.1707    -6.6681    95.0104 C.ar       1          -0.1102
     17 C13         5.3543    -6.8257    96.4045 C.ar       1           0.3397
     18 N3          6.6178    -7.0250    96.9412 N.pl3      1          -0.6398
     19 C14         7.1160    -8.3234    97.0947 C.ar       1           0.1379
     20 C15         6.7252    -9.3264    96.2173 C.ar       1          -0.1282
     21 C16         7.2180   -10.6076    96.3707 C.ar       1          -0.1078
     22 C17         8.1010   -10.8930    97.3986 C.ar       1           0.1161
     23 F1          8.5812   -12.1470    97.5466 F          1          -0.1161
     24 C18         8.4928    -9.8950    98.2748 C.ar       1          -0.1058
     25 C19         8.0069    -8.6102    98.1221 C.ar       1          -0.0382
     26 Cl1         8.5037    -7.3574    99.2163 Cl         1          -0.0311
     27 C20         4.2322    -6.7742    97.2179 C.ar       1          -0.2307
     28 C21         2.9811    -6.5731    96.6521 C.ar       1           0.2356
     29 N4          2.8221    -6.4285    95.3569 N.ar       1          -0.4927
     30 H2          1.9298    -6.2898    95.0029 H          1           0.4481
     31 C22         3.8605    -6.4665    94.5122 C.ar       1           0.1733
     32 C23         3.6704    -6.3037    93.1319 C.ar       1          -0.1317
     33 C24         7.4098    -4.7353    86.1984 C.3        1          -0.0575
     34 C25         8.6553    -3.8605    86.3561 C.3        1           0.0327
     35 H3         10.9320    -6.3094    86.7356 H          1           0.0897
     36 H4          9.3099    -6.4190    86.0109 H          1           0.0899
     37 H5         10.5496    -5.3822    85.2651 H          1           0.0301
     38 H6         10.0334    -5.6793    88.8272 H          1           0.1300
     39 H7          9.0102    -4.2303    88.9784 H          1           0.1046
     40 H8          8.2381    -6.8238    87.5655 H          1           0.1350
     41 H9          7.6461    -6.2880    89.1563 H          1           0.1420
     42 H10         5.1013    -5.5671    86.5975 H          1           0.1602
     43 H11         6.0248    -7.0071    87.0890 H          1           0.1503
     44 H12         2.9386    -5.7182    88.0323 H          1           0.1727
     45 H13         2.4063    -5.9109    90.6675 H          1           0.1739
     46 H14         6.8993    -6.5857    92.1160 H          1           0.1601
     47 H15         7.2588    -6.8626    94.5066 H          1           0.1603
     48 H16         7.1560    -6.2641    97.2099 H          1           0.4324
     49 H17         6.0361    -9.1050    95.4157 H          1           0.1487
     50 H18         6.9142   -11.3876    95.6883 H          1           0.1584
     51 H19         9.1818   -10.1198    99.0756 H          1           0.1642
     52 H20         4.3317    -6.8908    98.2870 H          1           0.1918
     53 H21         2.1141    -6.5348    97.2949 H          1           0.2173
     54 H22         2.6788    -6.1450    92.7346 H          1           0.1612
     55 H23         7.6539    -5.6095    85.5947 H          1           0.1349
     56 H24         6.6233    -4.1626    85.7069 H          1           0.1359
     57 H25         8.4083    -2.9792    86.9482 H          1           0.1031
     58 H26         9.0092    -3.5508    85.3727 H          1           0.1277
@<TRIPOS>BOND
     1    1    2 1
     2    1   35 1
     3    1   36 1
     4    1   37 1
     5    2   34 1
     6    2    3 1
     7    3    4 1
     8    3   38 1
     9    3   39 1
    10    4    5 1
    11    4   40 1
    12    4   41 1
    13    5    6 1
    14    5    7 1
    15    5   33 1
    16    7    8 1
    17    7   42 1
    18    7   43 1
    19    8   12 1
    20    8    9 2
    21    9   10 1
    22    9   44 1
    23   10   11 2
    24   10   45 1
    25   11   12 1
    26   11   13 1
    27   13   32 ar
    28   13   14 ar
    29   14   15 ar
    30   14   46 1
    31   15   16 ar
    32   15   47 1
    33   16   31 ar
    34   16   17 ar
    35   17   18 1
    36   17   27 ar
    37   18   19 1
    38   18   48 1
    39   19   25 ar
    40   19   20 ar
    41   20   21 ar
    42   20   49 1
    43   21   22 ar
    44   21   50 1
    45   22   23 1
    46   22   24 ar
    47   24   25 ar
    48   24   51 1
    49   25   26 1
    50   27   28 ar
    51   27   52 1
    52   28   29 ar
    53   28   53 1
    54   29   30 1
    55   29   31 ar
    56   31   32 ar
    57   32   54 1
    58   33   34 1
    59   33   55 1
    60   33   56 1
    61   34   57 1
    62   34   58 1
##########                 Name:              T533645
##########          Protonation:                   20
##########               SMILES:   c1ccc(cc1)c2ccc(cc2)Nc3cc[nH+]/c(=N/c4ccc(cc4)C[NH3+])/[nH]3
##########            Long Name:   6-(4-phenylanilino)-1H-pyrimidin-3-ium-2-ylidene]amino]phenyl]methylammonium
##########          FlexRecCode: 1
##########               Number:                  289
##########   Ligand Source File: /raidb/db2/rgc/tcams/tcams-0001115.db2.gz
##########           GlobalRank: 372
##########                 Rank:                    1
##########               Setnum:                   58
##########             Matchnum:                 4144
##########                Cloud:                    1
##########        Electrostatic:           -52.839249
##########        Van der Waals:           -26.341248
##########  Ligand Polar Desolv:            18.976910
########## Ligand Apolar Desolv:            -4.272200
##########      Internal Energy:             0.000000
##########      Receptor Energy: 0.0
########## Receptor Desolvation:             0.000000
########## Receptor Hydrophobic:             0.000000
##########         Total Energy: -64.48
##########        Ligand Charge:             2.000000
##########            Arbitrary:    +999.9990
##########     heavy atom count:   28
##########           pose count:    1
##########        Ligand Energy:             0.000000
# num electro vdwattr vdwrepu polsolv apolsol rdesolv rhydroe totalscore fullpol fullapo
#   1   16.24   -0.89    0.18   -7.41    0.23    0.00    0.00       8.34  -28.53    0.87
#   2  -15.27   -0.04    0.00    6.04    0.17    0.00    0.00      -9.10   21.30    0.60
#   3   -8.57   -0.01    0.00    3.04    0.08    0.00    0.00      -5.46   22.64    0.60
#   4  -11.82   -0.02    0.00    4.98    0.13    0.00    0.00      -6.73   21.69    0.58
#   5   -0.77   -0.28    0.01    0.46   -0.08    0.00    0.00      -0.66    2.85   -0.50
#   6    3.53   -0.63    0.07   -0.85   -0.07    0.00    0.00       2.04   -4.44   -0.37
#   7    1.11   -0.42    0.02   -0.36   -0.07    0.00    0.00       0.28   -2.35   -0.45
#   8    2.58   -0.45    0.02   -1.05   -0.06    0.00    0.00       1.04   -5.99   -0.37
#   9   -2.30   -0.76    0.08    0.54   -0.13    0.00    0.00      -2.57    2.30   -0.56
#  10    2.24   -1.76    0.59   -1.53   -0.15    0.00    0.00      -0.62   -4.85   -0.47
#  11    1.45   -1.41    0.35   -0.70   -0.13    0.00    0.00      -0.45   -2.46   -0.44
#  12    8.05   -0.85    0.11   -3.89    0.47    0.00    0.00       3.89  -16.74    2.04
#  13  -12.13   -0.85    0.06    5.22   -1.31    0.00    0.00      -9.01   18.49   -4.64
#  14   16.79   -0.93    0.05   -6.82    0.25    0.00    0.00       9.34  -20.76    0.77
#  15  -15.15   -1.53    0.20    7.73   -0.67    0.00    0.00      -9.42   18.45   -1.61
#  16   18.66   -2.63    1.07  -10.28    0.47    0.00    0.00       7.29  -22.39    1.03
#  17   -2.87   -1.52    0.34    2.47   -0.29    0.00    0.00      -1.86    6.04   -0.70
#  18    4.54   -1.60    0.26   -2.13   -0.18    0.00    0.00       0.89   -4.91   -0.42
#  19    1.59   -2.17    0.99   -0.71   -0.17    0.00    0.00      -0.47   -1.85   -0.44
#  20    0.41   -1.20    0.12   -0.88   -0.15    0.00    0.00      -1.70   -2.41   -0.41
#  21    0.67   -1.57    0.26   -0.85   -0.18    0.00    0.00      -1.68   -2.13   -0.44
#  22    1.79   -1.38    0.15   -1.63   -0.18    0.00    0.00      -1.26   -4.15   -0.46
#  23    0.74   -1.40    0.26   -0.26   -0.14    0.00    0.00      -0.80   -0.75   -0.41
#  24    0.82   -1.24    0.26   -0.75   -0.14    0.00    0.00      -1.04   -2.36   -0.44
#  25    1.00   -1.16    0.14   -0.91   -0.18    0.00    0.00      -1.11   -2.37   -0.47
#  26    0.97   -1.50    0.20   -1.25   -0.23    0.00    0.00      -1.80   -2.58   -0.47
#  27    1.21   -1.52    0.18   -1.14   -0.23    0.00    0.00      -1.49   -2.35   -0.47
#  28    1.29   -1.55    0.24   -1.06   -0.19    0.00    0.00      -1.28   -2.41   -0.44
#  29    7.66   -2.65    1.11   -4.99   -0.22    0.00    0.00       0.91  -10.48   -0.47
#  30   -8.79   -2.06    0.71    6.25   -0.43    0.00    0.00      -4.33   14.00   -0.97
#  31   12.27   -1.01    0.06   -6.31    0.35    0.00    0.00       5.35  -18.42    1.01
#  32  -10.54   -0.01    0.00    3.30    0.11    0.00    0.00      -7.14   17.17    0.59
#  33   -2.05   -0.07    0.00    0.41   -0.02    0.00    0.00      -1.72    6.25   -0.28
#  34   -1.67   -0.04    0.00    0.26   -0.01    0.00    0.00      -1.46    6.76   -0.28
#  35   -1.69   -0.06    0.00    0.40   -0.02    0.00    0.00      -1.36    6.96   -0.28
#  36   -1.28   -0.09    0.00    0.31   -0.02    0.00    0.00      -1.08    3.57   -0.28
#  37   -2.74   -1.10    2.48    0.71   -0.10    0.00    0.00      -0.75    1.91   -0.28
#  38   -3.29   -0.43    0.17    1.59   -0.08    0.00    0.00      -2.04    5.47   -0.28
#  39  -14.03   -0.01    0.00    2.61    0.07    0.00    0.00     -11.36   15.15    0.40
#  40  -13.53   -0.11    0.01    7.64    0.27    0.00    0.00      -5.73   16.63    0.59
#  41   -4.39   -0.46    0.11    2.10   -0.10    0.00    0.00      -2.74    4.55   -0.22
#  42   -3.06   -1.97    6.70    1.37   -0.09    0.00    0.00       2.95    3.53   -0.22
#  43   -0.36   -0.71    0.36    1.14   -0.08    0.00    0.00       0.34    3.07   -0.22
#  44   -1.88   -0.34    0.05    1.86   -0.10    0.00    0.00      -0.42    5.13   -0.28
#  45   -0.73   -0.19    0.02    0.61   -0.04    0.00    0.00      -0.33    3.66   -0.22
#  46   -1.34   -0.21    0.02    0.46   -0.06    0.00    0.00      -1.13    2.17   -0.28
#  47   -1.21   -0.51    0.18    0.58   -0.11    0.00    0.00      -1.07    1.46   -0.28
#  48   -1.42   -0.43    0.17    0.76   -0.11    0.00    0.00      -1.03    1.87   -0.28
#  49   -2.02   -0.31    0.03    1.20   -0.08    0.00    0.00      -1.19    3.20   -0.22
#  50   -5.81   -0.96    0.59    4.96   -0.15    0.00    0.00      -1.36    9.44   -0.28
#  51   -7.73   -0.69    0.39    5.75   -0.12    0.00    0.00      -2.41   13.68   -0.28

@<TRIPOS>MOLECULE
          T533645        20
   51    54     0     0     0



@<TRIPOS>ATOM
      1 N1          7.8098    -6.6603    90.0545 N.4        1          -0.6378
      2 H1          7.7603    -5.6622    89.9153 H          1           0.4353
      3 H2          8.6430    -7.0205    89.6139 H          1           0.4434
      4 H3          7.8385    -6.8609    91.0430 H          1           0.4322
      5 C1          6.6271    -7.2969    89.4596 C.3        1           0.0443
      6 C2          5.3913    -6.8483    90.1962 C.ar       1          -0.1704
      7 C3          4.9461    -7.5640    91.2938 C.ar       1          -0.0671
      8 C4          3.8163    -7.1593    91.9731 C.ar       1          -0.1679
      9 C5          3.1203    -6.0231    91.5504 C.ar       1           0.1255
     10 C6          3.5761    -5.3054    90.4408 C.ar       1          -0.1042
     11 C7          4.7105    -5.7194    89.7749 C.ar       1          -0.0616
     12 N2          2.0002    -5.6164    92.2179 N.2        1          -0.5155
     13 C8          2.0740    -5.2946    93.5013 C.2        1           0.5711
     14 N3          3.3010    -5.2387    94.1186 N.pl3      1          -0.6238
     15 C9          3.3761    -4.9058    95.4433 C.2        1           0.5556
     16 N4          4.5906    -4.8435    96.0797 N.pl3      1          -0.6563
     17 C10         5.4026    -5.9783    96.1480 C.ar       1           0.1249
     18 C11         6.6778    -5.9536    95.5949 C.ar       1          -0.1661
     19 C12         7.4808    -7.0721    95.6616 C.ar       1          -0.0763
     20 C13         7.0133    -8.2285    96.2841 C.ar       1          -0.0314
     21 C14         5.7342    -8.2511    96.8380 C.ar       1          -0.0735
     22 C15         4.9364    -7.1286    96.7739 C.ar       1          -0.1259
     23 C16         7.8755    -9.4334    96.3566 C.ar       1          -0.0716
     24 C17         7.8375   -10.3830    95.3372 C.ar       1          -0.1078
     25 C18         8.6422   -11.5019    95.4097 C.ar       1          -0.1156
     26 C19         9.4850   -11.6820    96.4917 C.ar       1          -0.1017
     27 C20         9.5265   -10.7430    97.5065 C.ar       1          -0.1136
     28 C21         8.7307    -9.6172    97.4415 C.ar       1          -0.1048
     29 C22         2.2057    -4.6324    96.1310 C.2        1          -0.2900
     30 C23         0.9913    -4.7033    95.4591 C.2        1           0.3206
     31 N5          0.9549    -5.0225    94.1796 N.pl3      1          -0.5282
     32 H4          0.0998    -5.0640    93.7235 H          1           0.4703
     33 H5          6.5491    -7.0106    88.4108 H          1           0.1465
     34 H6          6.7215    -8.3803    89.5344 H          1           0.1455
     35 H7          5.4846    -8.4419    91.6190 H          1           0.1424
     36 H8          3.4697    -7.7190    92.8294 H          1           0.1346
     37 H9          3.0436    -4.4266    90.1085 H          1           0.1478
     38 H10         5.0665    -5.1634    88.9201 H          1           0.1471
     39 H11         4.1085    -5.4344    93.6180 H          1           0.4461
     40 H12         4.8852    -4.0115    96.4822 H          1           0.4489
     41 H13         7.0393    -5.0576    95.1125 H          1           0.1153
     42 H14         8.4713    -7.0526    95.2315 H          1           0.1388
     43 H15         5.3701    -9.1460    97.3207 H          1           0.1448
     44 H16         3.9472    -7.1443    97.2068 H          1           0.1425
     45 H17         7.1793   -10.2438    94.4924 H          1           0.1229
     46 H18         8.6137   -12.2385    94.6203 H          1           0.1302
     47 H19        10.1128   -12.5591    96.5443 H          1           0.1311
     48 H20        10.1862   -10.8887    98.3491 H          1           0.1318
     49 H21         8.7672    -8.8825    98.2322 H          1           0.1268
     50 H22         2.2362    -4.3674    97.1776 H          1           0.2098
     51 H23         0.0727    -4.4922    95.9863 H          1           0.2352
@<TRIPOS>BOND
     1    1    2 1
     2    1    3 1
     3    1    4 1
     4    1    5 1
     5    5    6 1
     6    5   33 1
     7    5   34 1
     8    6   11 ar
     9    6    7 ar
    10    7    8 ar
    11    7   35 1
    12    8    9 ar
    13    8   36 1
    14    9   10 ar
    15    9   12 1
    16   10   11 ar
    17   10   37 1
    18   11   38 1
    19   12   13 2
    20   13   31 1
    21   13   14 1
    22   14   15 1
    23   14   39 1
    24   15   16 1
    25   15   29 2
    26   16   17 1
    27   16   40 1
    28   17   22 ar
    29   17   18 ar
    30   18   19 ar
    31   18   41 1
    32   19   20 ar
    33   19   42 1
    34   20   21 ar
    35   20   23 1
    36   21   22 ar
    37   21   43 1
    38   22   44 1
    39   23   28 ar
    40   23   24 ar
    41   24   25 ar
    42   24   45 1
    43   25   26 ar
    44   25   46 1
    45   26   27 ar
    46   26   47 1
    47   27   28 ar
    48   27   48 1
    49   28   49 1
    50   29   30 1
    51   29   50 1
    52   30   31 2
    53   30   51 1
    54   31   32 1
##########                 Name:              T539920
##########          Protonation:                   99
##########               SMILES:   COc1ccc(cc1OC)C[NH2+]CCCCCC[NH2+]CCc2ccc(cc2)Cl
##########            Long Name:   -(4-chlorophenyl)ethyl-[6-[(3,4-dimethoxyphenyl)methylammonio]hexyl]ammonium
##########          FlexRecCode: 1
##########               Number:                   13
##########   Ligand Source File: /raidb/db2/rgc/tcams/tcams-0001961.db2.gz
##########           GlobalRank: 373
##########                 Rank:                    1
##########               Setnum:                   34
##########             Matchnum:                 3341
##########                Cloud:                    1
##########        Electrostatic:           -59.037605
##########        Van der Waals:           -23.342289
##########  Ligand Polar Desolv:            21.178745
########## Ligand Apolar Desolv:            -3.267463
##########      Internal Energy:             0.000000
##########      Receptor Energy: 0.0
########## Receptor Desolvation:             0.000000
########## Receptor Hydrophobic:             0.000000
##########         Total Energy: -64.47
##########        Ligand Charge:             2.000000
##########            Arbitrary:    +999.9990
##########     heavy atom count:   28
##########           pose count:    1
##########        Ligand Energy:             0.000000
# num electro vdwattr vdwrepu polsolv apolsol rdesolv rhydroe totalscore fullpol fullapo
#   1   -0.16   -1.21    0.17    0.16    0.02    0.00    0.00      -1.02    0.29    0.03
#   2    2.06   -1.24    0.11   -2.12    0.33    0.00    0.00      -0.86   -4.04    0.62
#   3   -1.14   -1.32    0.15   -0.06   -0.12    0.00    0.00      -2.49   -0.14   -0.31
#   4    1.95   -1.92    0.67   -1.88   -0.19    0.00    0.00      -1.37   -4.14   -0.42
#   5    1.16   -1.50    0.16   -1.09   -0.22    0.00    0.00      -1.49   -2.28   -0.46
#   6    2.81   -1.60    0.39   -1.14   -0.14    0.00    0.00       0.31   -3.08   -0.37
#   7   -1.28   -1.19    0.25    1.41   -0.18    0.00    0.00      -0.99    3.27   -0.42
#   8   12.34   -0.97    0.11   -8.62    0.29    0.00    0.00       3.14  -21.90    0.73
#   9   -9.10   -0.01    0.00    2.66    0.07    0.00    0.00      -6.37   20.67    0.57
#  10   -8.33   -0.02    0.00    4.93    0.14    0.00    0.00      -3.28   20.43    0.57
#  11    0.38   -1.38    0.32    0.23   -0.20    0.00    0.00      -0.65    0.46   -0.40
#  12    4.77   -1.20    0.17   -2.86   -0.11    0.00    0.00       0.78   -6.38   -0.24
#  13    3.15   -0.58    0.03   -1.55   -0.07    0.00    0.00       0.98   -4.98   -0.22
#  14    4.39   -1.25    0.52   -1.64   -0.07    0.00    0.00       1.95   -5.15   -0.22
#  15    3.34   -0.54    0.05   -1.51   -0.06    0.00    0.00       1.28   -6.19   -0.24
#  16    0.25   -0.89    0.19    0.11   -0.11    0.00    0.00      -0.45    0.38   -0.40
#  17   17.50   -1.72    1.16   -6.17    0.21    0.00    0.00      10.97  -21.95    0.73
#  18  -23.05   -0.14    0.04    6.60    0.17    0.00    0.00     -16.39   22.00    0.57
#  19  -10.58   -0.01    0.00    2.57    0.07    0.00    0.00      -7.95   22.01    0.57
#  20    0.21   -1.18    0.40    0.30   -0.12    0.00    0.00      -0.38    1.01   -0.40
#  21    2.91   -1.02    0.32   -1.14   -0.07    0.00    0.00       1.00   -3.89   -0.25
#  22    2.04   -0.56    0.04   -0.28   -0.07    0.00    0.00       1.17   -1.41   -0.36
#  23    1.85   -1.04    0.25   -0.55   -0.11    0.00    0.00       0.41   -2.35   -0.45
#  24    1.21   -0.97    0.41   -0.50   -0.08    0.00    0.00       0.06   -2.76   -0.46
#  25    0.15   -0.31    0.02   -0.16   -0.03    0.00    0.00      -0.32   -1.48   -0.30
#  26    0.20   -0.58    0.03   -0.20   -0.12    0.00    0.00      -0.67   -1.70   -0.99
#  27    0.65   -0.16    0.00   -0.18   -0.03    0.00    0.00       0.28   -2.76   -0.46
#  28    1.00   -0.24    0.00   -0.23   -0.04    0.00    0.00       0.50   -2.36   -0.45
#  29    1.93   -1.90    1.04   -1.05   -0.12    0.00    0.00      -0.10   -3.49   -0.40
#  30   -0.88   -1.30    0.31    0.02   -0.10    0.00    0.00      -1.96    0.06   -0.31
#  31    2.16   -0.88    0.13   -1.64    0.19    0.00    0.00      -0.05   -5.41    0.62
#  32   -0.07   -1.14    0.38    0.06    0.01    0.00    0.00      -0.75    0.20    0.03
#  33   -0.32   -0.56    0.14    0.70   -0.14    0.00    0.00      -0.18    1.34   -0.27
#  34   -0.63   -0.38    0.10    0.33   -0.09    0.00    0.00      -0.68    1.00   -0.27
#  35   -0.98   -0.39    0.08    0.42   -0.12    0.00    0.00      -1.00    0.99   -0.28
#  36   -1.84   -0.85    1.66    0.93   -0.08    0.00    0.00      -0.18    2.51   -0.22
#  37   -2.19   -0.35    0.04    3.09   -0.12    0.00    0.00       0.47    6.97   -0.28
#  38   -3.18   -0.52    0.24    3.35   -0.13    0.00    0.00      -0.24    7.47   -0.28
#  39   -4.21   -0.62    0.46    3.01   -0.11    0.00    0.00      -1.47    7.88   -0.28
#  40   -4.31   -1.03    1.38    3.22   -0.14    0.00    0.00      -0.87    6.67   -0.28
#  41   -6.58   -0.81    1.37    2.76   -0.11    0.00    0.00      -3.36    6.79   -0.28
#  42   -2.46   -0.43    0.09    1.17   -0.09    0.00    0.00      -1.73    3.58   -0.28
#  43   -3.18   -0.64    0.26    1.65   -0.13    0.00    0.00      -2.04    3.52   -0.28
#  44   -1.52   -0.11    0.00    0.25   -0.03    0.00    0.00      -1.41    2.63   -0.28
#  45   -1.83   -0.15    0.00    0.39   -0.04    0.00    0.00      -1.62    2.66   -0.28
#  46   -3.50   -0.82    0.63    0.85   -0.11    0.00    0.00      -2.94    2.24   -0.28
#  47   -3.79   -0.82    1.72    0.55   -0.07    0.00    0.00      -2.41    2.22   -0.28
#  48   -1.42   -0.08    0.00    0.28   -0.02    0.00    0.00      -1.23    3.98   -0.28
#  49   -1.35   -0.14    0.01    0.56   -0.04    0.00    0.00      -0.96    3.99   -0.28
#  50   -1.46   -0.11    0.00    0.75   -0.04    0.00    0.00      -0.84    5.76   -0.28
#  51   -4.28   -0.65    0.35    2.10   -0.10    0.00    0.00      -2.58    5.74   -0.28
#  52   -1.97   -0.12    0.01    0.74   -0.04    0.00    0.00      -1.39    5.70   -0.28
#  53   -5.77   -1.01    1.32    2.03   -0.10    0.00    0.00      -3.54    5.69   -0.28
#  54   -2.55   -0.19    0.02    0.96   -0.05    0.00    0.00      -1.82    5.15   -0.28
#  55   -3.80   -1.06    1.77    1.82   -0.10    0.00    0.00      -1.37    5.16   -0.28
#  56   -3.74   -0.42    0.20    1.54   -0.08    0.00    0.00      -2.50    5.44   -0.28
#  57   -1.56   -0.43    0.48    0.27   -0.05    0.00    0.00      -1.29    1.54   -0.28
#  58   -0.46   -0.02    0.00    0.04   -0.01    0.00    0.00      -0.44    1.53   -0.28
#  59   -1.22   -0.05    0.00    0.25   -0.01    0.00    0.00      -1.02    5.42   -0.28
#  60   -2.09   -0.39    0.21    1.24   -0.04    0.00    0.00      -1.08    6.35   -0.22
#  61   -0.71   -0.22    0.03    0.24   -0.06    0.00    0.00      -0.73    1.12   -0.28
#  62    0.05   -0.76    0.53    0.65   -0.09    0.00    0.00       0.37    1.87   -0.27
#  63   -0.01   -0.43    0.27    0.58   -0.06    0.00    0.00       0.36    2.75   -0.27

@<TRIPOS>MOLECULE
          T539920        99
   63    64     0     0     0



@<TRIPOS>ATOM
      1 C1          9.4595   -12.1823    97.3814 C.3        1           0.0193
      2 O1          8.0999   -11.7784    97.2066 O.3        1          -0.2945
      3 C2          7.8800   -10.4790    96.8712 C.ar       1           0.1448
      4 C3          7.7101    -9.5253    97.8621 C.ar       1          -0.1774
      5 C4          7.4872    -8.2048    97.5194 C.ar       1          -0.0813
      6 C5          7.4328    -7.8323    96.1891 C.ar       1          -0.1770
      7 C6          7.1890    -6.3913    95.8211 C.3        1           0.0534
      8 N1          5.7447    -6.1566    95.6920 N.4        1          -0.5102
      9 H1          5.3695    -6.7557    94.9720 H          1           0.4281
     10 H2          5.2909    -6.3609    96.5697 H          1           0.4272
     11 C7          5.5071    -4.7520    95.3333 C.3        1          -0.0110
     12 C8          4.0027    -4.5075    95.1988 C.3        1          -0.1520
     13 C9          3.4339    -5.4160    94.1070 C.3        1          -0.1190
     14 C10         4.1219    -5.1060    92.7760 C.3        1          -0.1196
     15 C11         3.5531    -6.0146    91.6842 C.3        1          -0.1517
     16 C12         4.2411    -5.7046    90.3532 C.3        1          -0.0102
     17 N2          5.6854    -5.9395    90.4823 N.4        1          -0.5105
     18 H3          6.0604    -5.3402    91.2023 H          1           0.4293
     19 H4          5.8488    -6.9041    90.7287 H          1           0.4294
     20 C13         6.3461    -5.6417    89.2044 C.3        1          -0.0072
     21 C14         7.8504    -5.8861    89.3388 C.3        1          -0.1000
     22 C15         8.0941    -7.3271    89.7066 C.ar       1          -0.1107
     23 C16         8.1432    -7.7020    91.0364 C.ar       1          -0.0961
     24 C17         8.3671    -9.0233    91.3744 C.ar       1          -0.1057
     25 C18         8.5419    -9.9709    90.3815 C.ar       1          -0.0216
     26 Cl1         8.8228   -11.6309    90.8052 Cl         1          -0.0454
     27 C19         8.4924    -9.5952    89.0510 C.ar       1          -0.1056
     28 C20         8.2630    -8.2745    88.7142 C.ar       1          -0.0960
     29 C21         7.6019    -8.7786    95.1956 C.ar       1          -0.1544
     30 C22         7.8310   -10.1031    95.5323 C.ar       1           0.1073
     31 O2          8.0027   -11.0345    94.5563 O.3        1          -0.2957
     32 C23         6.8299   -11.6948    94.0761 C.3        1           0.0230
     33 H5          9.4934   -13.2390    97.6461 H          1           0.0621
     34 H6         10.0081   -12.0226    96.4530 H          1           0.0637
     35 H7          9.9140   -11.5932    98.1778 H          1           0.1138
     36 H8          7.7514    -9.8138    98.9019 H          1           0.1495
     37 H9          7.3549    -7.4624    98.2925 H          1           0.1358
     38 H10         7.5943    -5.7441    96.5988 H          1           0.1365
     39 H11         7.6791    -6.1706    94.8728 H          1           0.1389
     40 H12         5.9122    -4.1048    96.1111 H          1           0.1322
     41 H13         5.9971    -4.5312    94.3851 H          1           0.1329
     42 H14         3.5125    -4.7284    96.1470 H          1           0.0898
     43 H15         3.8262    -3.4653    94.9327 H          1           0.0894
     44 H16         3.6103    -6.4581    94.3732 H          1           0.0788
     45 H17         2.3622    -5.2419    94.0113 H          1           0.0791
     46 H18         3.9455    -4.0639    92.5098 H          1           0.0789
     47 H19         5.1936    -5.2802    92.8718 H          1           0.0788
     48 H20         3.7296    -7.0567    91.9504 H          1           0.0900
     49 H21         2.4813    -5.8405    91.5885 H          1           0.0901
     50 H22         3.8359    -6.3521    89.5754 H          1           0.1326
     51 H23         4.0647    -4.6625    90.0869 H          1           0.1326
     52 H24         5.9407    -6.2888    88.4265 H          1           0.1346
     53 H25         6.1696    -4.5994    88.9383 H          1           0.1346
     54 H26         8.3405    -5.6653    88.3907 H          1           0.0983
     55 H27         8.2555    -5.2391    90.1168 H          1           0.0983
     56 H28         8.0068    -6.9622    91.8113 H          1           0.1340
     57 H29         8.4062    -9.3159    92.4131 H          1           0.1419
     58 H30         8.6290   -10.3344    88.2755 H          1           0.1419
     59 H31         8.2199    -7.9818    87.6755 H          1           0.1340
     60 H32         7.5593    -8.4850    94.1572 H          1           0.1421
     61 H33         7.1070   -12.4107    93.3023 H          1           0.1119
     62 H34         6.3453   -12.2194    94.8997 H          1           0.0591
     63 H35         6.1425   -10.9580    93.6602 H          1           0.0548
@<TRIPOS>BOND
     1    1    2 1
     2    1   33 1
     3    1   34 1
     4    1   35 1
     5    2    3 1
     6    3   30 ar
     7    3    4 ar
     8    4    5 ar
     9    4   36 1
    10    5    6 ar
    11    5   37 1
    12    6    7 1
    13    6   29 ar
    14    7    8 1
    15    7   38 1
    16    7   39 1
    17    8    9 1
    18    8   10 1
    19    8   11 1
    20   11   12 1
    21   11   40 1
    22   11   41 1
    23   12   13 1
    24   12   42 1
    25   12   43 1
    26   13   14 1
    27   13   44 1
    28   13   45 1
    29   14   15 1
    30   14   46 1
    31   14   47 1
    32   15   16 1
    33   15   48 1
    34   15   49 1
    35   16   17 1
    36   16   50 1
    37   16   51 1
    38   17   18 1
    39   17   19 1
    40   17   20 1
    41   20   21 1
    42   20   52 1
    43   20   53 1
    44   21   22 1
    45   21   54 1
    46   21   55 1
    47   22   28 ar
    48   22   23 ar
    49   23   24 ar
    50   23   56 1
    51   24   25 ar
    52   24   57 1
    53   25   26 1
    54   25   27 ar
    55   27   28 ar
    56   27   58 1
    57   28   59 1
    58   29   30 ar
    59   29   60 1
    60   30   31 1
    61   31   32 1
    62   32   61 1
    63   32   62 1
    64   32   63 1
##########                 Name:              T526942
##########          Protonation:                   15
##########               SMILES:   C[NH+](C)CC(=O)Nc1cccc(c1)/N=c\2/[nH]c(cc[nH+]2)NC[C@H](c3ccccc3)O
##########            Long Name:   ]-1H-pyrimidin-3-ium-2-ylidene]amino]anilino]-2-oxo-ethyl]-dimethyl-ammonium
##########          FlexRecCode: 1
##########               Number:                  305
##########   Ligand Source File: /raidb/db2/rgc/tcams/tcams-0000206.db2.gz
##########           GlobalRank: 375
##########                 Rank:                    1
##########               Setnum:                  366
##########             Matchnum:                 3101
##########                Cloud:                    1
##########        Electrostatic:           -35.234783
##########        Van der Waals:           -37.097454
##########  Ligand Polar Desolv:            11.950546
########## Ligand Apolar Desolv:            -4.063833
##########      Internal Energy:             0.000000
##########      Receptor Energy: 0.0
########## Receptor Desolvation:             0.000000
########## Receptor Hydrophobic:             0.000000
##########         Total Energy: -64.45
##########        Ligand Charge:             2.000000
##########            Arbitrary:    +999.9990
##########     heavy atom count:   30
##########           pose count:    1
##########        Ligand Energy:             0.000000
# num electro vdwattr vdwrepu polsolv apolsol rdesolv rhydroe totalscore fullpol fullapo
#   1    0.29   -0.67    0.32   -0.35   -0.10    0.00    0.00      -0.51   -1.74   -0.48
#   2    2.72   -0.53    0.04   -3.23    0.10    0.00    0.00      -0.91  -13.63    0.41
#   3   -2.27   -0.01    0.00    1.20    0.04    0.00    0.00      -1.04   17.36    0.53
#   4    0.56   -0.66    0.15   -0.44   -0.11    0.00    0.00      -0.50   -1.95   -0.47
#   5    0.29   -0.80    0.11   -0.05   -0.13    0.00    0.00      -0.57   -0.15   -0.39
#   6   -2.97   -1.10    0.14    4.83   -0.19    0.00    0.00       0.70   15.84   -0.61
#   7    1.43   -1.29    0.31   -4.54    0.07    0.00    0.00      -4.02  -16.18    0.26
#   8    5.24   -1.20    0.20   -6.65    0.57    0.00    0.00      -1.85  -19.41    1.65
#   9   -1.46   -1.41    0.29    1.37   -0.23    0.00    0.00      -1.45    4.00   -0.68
#  10    1.55   -1.51    0.21   -1.83   -0.21    0.00    0.00      -1.78   -4.07   -0.46
#  11    1.10   -1.85    0.25   -1.16   -0.25    0.00    0.00      -1.92   -2.15   -0.47
#  12    2.77   -1.82    0.38   -2.31   -0.18    0.00    0.00      -1.16   -4.65   -0.37
#  13   -1.81   -1.33    0.17    0.99   -0.21    0.00    0.00      -2.19    2.62   -0.56
#  14    1.34   -1.45    0.38   -1.14   -0.13    0.00    0.00      -1.01   -3.53   -0.41
#  15   12.57   -1.23    0.12   -5.93    0.82    0.00    0.00       6.35  -14.88    2.05
#  16  -12.86   -0.99    0.07    5.86   -1.59    0.00    0.00      -9.52   17.13   -4.66
#  17   17.71   -1.12    0.08   -6.71    0.39    0.00    0.00      10.36  -18.00    1.05
#  18  -14.27   -1.00    0.05    6.19   -0.70    0.00    0.00      -9.73   18.02   -2.04
#  19   17.12   -1.62    0.27   -7.88    0.64    0.00    0.00       8.52  -20.48    1.66
#  20   -0.99   -1.37    0.39    0.76   -0.15    0.00    0.00      -1.35    1.82   -0.35
#  21   -2.83   -0.90    0.13    1.50   -0.05    0.00    0.00      -2.15    3.93   -0.14
#  22    9.75   -0.69    0.04   -4.07    0.51    0.00    0.00       5.54  -13.63    1.70
#  23    3.18   -1.56    0.15   -1.16   -0.17    0.00    0.00       0.43   -2.37   -0.35
#  24    2.72   -1.93    0.49   -1.07   -0.22    0.00    0.00      -0.02   -2.14   -0.44
#  25    2.72   -2.40    0.55   -1.49   -0.29    0.00    0.00      -0.91   -2.39   -0.47
#  26    2.41   -2.64    0.50   -1.54   -0.32    0.00    0.00      -1.58   -2.24   -0.47
#  27    2.61   -3.13    0.64   -1.50   -0.30    0.00    0.00      -1.69   -2.32   -0.47
#  28    2.35   -2.87    0.72   -1.22   -0.25    0.00    0.00      -1.27   -2.17   -0.45
#  29    6.70   -0.96    0.04   -4.15   -0.18    0.00    0.00       1.46  -10.88   -0.46
#  30   -3.80   -1.41    0.20    4.38   -0.40    0.00    0.00      -1.03   10.54   -0.97
#  31    7.90   -1.21    0.11   -6.87    0.34    0.00    0.00       0.28  -18.55    0.93
#  32   -4.04   -0.02    0.00    4.23    0.12    0.00    0.00       0.29   14.25    0.41
#  33   -0.50   -0.25    0.07    0.86   -0.05    0.00    0.00       0.12    4.52   -0.28
#  34   -0.61   -0.10    0.01    0.50   -0.02    0.00    0.00      -0.22    5.83   -0.28
#  35   -1.00   -0.60    1.33    0.87   -0.05    0.00    0.00       0.55    5.20   -0.28
#  36   -1.66   -0.36    0.25    0.98   -0.06    0.00    0.00      -0.86    4.91   -0.28
#  37   -0.59   -0.07    0.00    0.17   -0.01    0.00    0.00      -0.49    2.59   -0.19
#  38   -1.36   -0.39    0.13    1.13   -0.07    0.00    0.00      -0.56    4.49   -0.28
#  39   -1.51   -0.42    0.11    2.70   -0.09    0.00    0.00       0.80    8.70   -0.28
#  40   -2.39   -0.33    0.10    2.51   -0.07    0.00    0.00      -0.19    9.60   -0.28
#  41   -3.88   -0.02    0.00    3.01    0.12    0.00    0.00      -0.77   14.54    0.59
#  42   -1.60   -0.28    0.04    1.21   -0.08    0.00    0.00      -0.71    4.12   -0.28
#  43   -3.06   -0.51    0.11    1.85   -0.15    0.00    0.00      -1.77    3.43   -0.28
#  44   -1.96   -0.87    1.89    1.45   -0.12    0.00    0.00       0.39    3.36   -0.28
#  45   -1.87   -0.22    0.04    0.45   -0.04    0.00    0.00      -1.64    2.57   -0.22
#  46  -18.52   -0.03    0.00    4.51    0.16    0.00    0.00     -13.87   13.84    0.50
#  47  -13.73   -0.04    0.00    5.16    0.19    0.00    0.00      -8.41   14.87    0.56
#  48   -2.72   -0.34    0.07    1.20   -0.08    0.00    0.00      -1.87    4.06   -0.28
#  49   -2.59   -1.12    1.45    1.64   -0.13    0.00    0.00      -0.74    3.67   -0.28
#  50   -1.37   -0.66    0.69    0.93   -0.08    0.00    0.00      -0.48    3.29   -0.28
#  51   -9.33   -0.02    0.00    2.46    0.24    0.00    0.00      -6.65   10.56    1.01
#  52   -3.63   -0.70    0.79    1.62   -0.09    0.00    0.00      -2.01    4.28   -0.24
#  53   -3.12   -1.03    1.32    1.05   -0.14    0.00    0.00      -1.92    2.05   -0.28
#  54   -3.11   -0.74    0.25    0.72   -0.17    0.00    0.00      -3.04    1.22   -0.28
#  55   -3.03   -0.93    0.26    0.95   -0.18    0.00    0.00      -2.93    1.52   -0.28
#  56   -2.79   -1.19    0.92    1.69   -0.15    0.00    0.00      -1.53    3.13   -0.28
#  57   -5.00   -0.21    0.02    1.86   -0.06    0.00    0.00      -3.39    8.70   -0.28
#  58   -2.02   -0.50    0.17    4.46   -0.11    0.00    0.00       2.00   11.38   -0.28

@<TRIPOS>MOLECULE
          T526942        15
   58    60     0     0     0



@<TRIPOS>ATOM
      1 C1          9.2526   -11.1863    92.2843 C.3        1          -0.0489
      2 N1          8.1249   -12.1242    92.3660 N.4        1          -0.3731
      3 H1          7.3065   -11.7030    91.9525 H          1           0.4335
      4 C2          8.4602   -13.3574    91.6415 C.3        1          -0.0608
      5 C3          7.8535   -12.4421    93.7742 C.3        1          -0.0310
      6 C4          7.5098   -11.1770    94.5175 C.2        1           0.5064
      7 O1          6.5526   -10.5146    94.1769 O.2        1          -0.5145
      8 N2          8.2660   -10.7818    95.5606 N.am       1          -0.6466
      9 C5          7.9468    -9.6070    96.2509 C.ar       1           0.1473
     10 C6          8.2556    -9.4888    97.6015 C.ar       1          -0.1291
     11 C7          7.9432    -8.3307    98.2888 C.ar       1          -0.0686
     12 C8          7.3228    -7.2832    97.6396 C.ar       1          -0.1704
     13 C9          7.0079    -7.3914    96.2817 C.ar       1           0.1052
     14 C10         7.3287    -8.5601    95.5869 C.ar       1          -0.1059
     15 N3          6.3937    -6.3564    95.6356 N.2        1          -0.5204
     16 C11         5.0706    -6.2925    95.5949 C.2        1           0.5790
     17 N4          4.4602    -5.3264    94.8309 N.pl3      1          -0.5914
     18 C12         3.0949    -5.2611    94.7894 C.2        1           0.5594
     19 N5          2.4649    -4.3059    94.0337 N.pl3      1          -0.6404
     20 C13         1.0720    -3.9498    94.3156 C.3        1           0.0412
     21 C14         0.2139    -4.2303    93.0805 C.3        1           0.1484
     22 O2         -0.0902    -5.6252    93.0186 O.3        1          -0.5436
     23 C15        -1.0665    -3.4404    93.1683 C.ar       1          -0.1406
     24 C16        -2.1758    -3.9885    93.7849 C.ar       1          -0.1102
     25 C17        -3.3502    -3.2639    93.8655 C.ar       1          -0.1127
     26 C18        -3.4152    -1.9911    93.3301 C.ar       1          -0.1015
     27 C19        -2.3058    -1.4428    92.7145 C.ar       1          -0.1118
     28 C20        -1.1300    -2.1657    92.6376 C.ar       1          -0.1019
     29 C21         2.3593    -6.1768    95.5234 C.2        1          -0.3213
     30 C22         3.0263    -7.1331    96.2791 C.2        1           0.2850
     31 N6          4.3449    -7.1716    96.2926 N.pl3      1          -0.5946
     32 H2          4.7961    -7.8479    96.8217 H          1           0.4516
     33 H3         10.1367   -11.6413    92.7310 H          1           0.1329
     34 H4          9.4540   -10.9504    91.2394 H          1           0.1279
     35 H5          9.0038   -10.2713    92.8219 H          1           0.1272
     36 H6          7.6235   -14.0533    91.7020 H          1           0.1225
     37 H7          8.6617   -13.1214    90.5965 H          1           0.1351
     38 H8          9.3443   -13.8123    92.0882 H          1           0.1296
     39 H9          7.0168   -13.1381    93.8349 H          1           0.1659
     40 H10         8.7377   -12.8972    94.2208 H          1           0.1674
     41 H11         9.0317   -11.3114    95.8331 H          1           0.4271
     42 H12         8.7409   -10.3051    98.1157 H          1           0.1417
     43 H13         8.1855    -8.2456    99.3379 H          1           0.1464
     44 H14         7.0801    -6.3803    98.1801 H          1           0.1316
     45 H15         7.0923    -8.6485    94.5369 H          1           0.1484
     46 H16         4.9946    -4.6946    94.3246 H          1           0.4539
     47 H17         2.9415    -3.8661    93.3124 H          1           0.4505
     48 H18         0.7077    -4.5439    95.1538 H          1           0.1004
     49 H19         1.0116    -2.8910    94.5672 H          1           0.1091
     50 H20         0.7605    -3.9376    92.1841 H          1           0.1271
     51 H21        -0.5774    -5.9559    93.7857 H          1           0.3824
     52 H22        -2.1249    -4.9829    94.2031 H          1           0.1199
     53 H23        -4.2171    -3.6923    94.3465 H          1           0.1300
     54 H24        -4.3331    -1.4253    93.3925 H          1           0.1313
     55 H25        -2.3567    -0.4484    92.2958 H          1           0.1319
     56 H26        -0.2620    -1.7358    92.1599 H          1           0.1270
     57 H27         1.2799    -6.1475    95.5088 H          1           0.1998
     58 H28         2.4621    -7.8515    96.8553 H          1           0.2156
@<TRIPOS>BOND
     1    1    2 1
     2    1   33 1
     3    1   34 1
     4    1   35 1
     5    2    3 1
     6    2    4 1
     7    2    5 1
     8    4   36 1
     9    4   37 1
    10    4   38 1
    11    5    6 1
    12    5   39 1
    13    5   40 1
    14    6    7 2
    15    6    8 am
    16    8    9 1
    17    8   41 1
    18    9   14 ar
    19    9   10 ar
    20   10   11 ar
    21   10   42 1
    22   11   12 ar
    23   11   43 1
    24   12   13 ar
    25   12   44 1
    26   13   14 ar
    27   13   15 1
    28   14   45 1
    29   15   16 2
    30   16   31 1
    31   16   17 1
    32   17   18 1
    33   17   46 1
    34   18   19 1
    35   18   29 2
    36   19   20 1
    37   19   47 1
    38   20   21 1
    39   20   48 1
    40   20   49 1
    41   21   22 1
    42   21   23 1
    43   21   50 1
    44   22   51 1
    45   23   28 ar
    46   23   24 ar
    47   24   25 ar
    48   24   52 1
    49   25   26 ar
    50   25   53 1
    51   26   27 ar
    52   26   54 1
    53   27   28 ar
    54   27   55 1
    55   28   56 1
    56   29   30 1
    57   29   57 1
    58   30   31 2
    59   30   58 1
    60   31   32 1
##########                 Name:              T529944
##########          Protonation:                   26
##########               SMILES:   C[NH+](CCCN(C)c1cc(cc[nH+]1)NC(=O)c2ccc(cc2)F)Cc3cccc(c3)F
##########            Long Name:   din-1-ium-2-yl]-methyl-amino]propyl-[(3-fluorophenyl)methyl]-methyl-ammonium
##########          FlexRecCode: 1
##########               Number:                   12
##########   Ligand Source File: /raidb/db2/rgc/tcams/tcams-0000605.db2.gz
##########           GlobalRank: 375
##########                 Rank:                    1
##########               Setnum:                   32
##########             Matchnum:                  191
##########                Cloud:                    1
##########        Electrostatic:           -38.325603
##########        Van der Waals:           -28.602108
##########  Ligand Polar Desolv:             6.653490
########## Ligand Apolar Desolv:            -4.175509
##########      Internal Energy:             0.000000
##########      Receptor Energy: 0.0
########## Receptor Desolvation:             0.000000
########## Receptor Hydrophobic:             0.000000
##########         Total Energy: -64.45
##########        Ligand Charge:             2.000000
##########            Arbitrary:    +999.9990
##########     heavy atom count:   31
##########           pose count:    1
##########        Ligand Energy:             0.000000
# num electro vdwattr vdwrepu polsolv apolsol rdesolv rhydroe totalscore fullpol fullapo
#   1   -2.10   -1.04    0.31    0.66   -0.16    0.00    0.00      -2.33    2.22   -0.54
#   2   13.75   -0.67    0.07   -4.75    0.34    0.00    0.00       8.74  -23.50    1.69
#   3   -1.52   -0.25    0.01    0.47   -0.06    0.00    0.00      -1.34    3.23   -0.39
#   4    3.78   -0.38    0.03   -1.63   -0.04    0.00    0.00       1.76   -8.61   -0.22
#   5    0.12   -0.17    0.00   -0.02   -0.04    0.00    0.00      -0.10   -0.18   -0.35
#   6    4.75   -0.26    0.01   -2.22    0.04    0.00    0.00       2.33  -17.23    0.33
#   7   -6.93   -0.01    0.00    1.49    0.04    0.00    0.00      -5.41   22.01    0.55
#   8    0.36   -0.11    0.00   -0.22   -0.03    0.00    0.00       0.00   -3.30   -0.44
#   9   -0.59   -0.51    0.09    0.58   -0.07    0.00    0.00      -0.50    2.90   -0.36
#  10    1.77   -0.79    0.08   -0.65   -0.09    0.00    0.00       0.32   -2.53   -0.33
#  11    2.22   -1.25    0.29   -0.88   -0.12    0.00    0.00       0.27   -2.64   -0.36
#  12    1.90   -1.98    0.51   -1.32   -0.20    0.00    0.00      -1.08   -3.18   -0.47
#  13    1.95   -1.83    0.47   -1.67   -0.19    0.00    0.00      -1.27   -4.12   -0.47
#  14   -0.71   -0.99    0.10   -0.06   -0.12    0.00    0.00      -1.78   -0.18   -0.34
#  15    0.03   -0.66    0.13   -0.95   -0.14    0.00    0.00      -1.59   -3.21   -0.48
#  16    0.82   -0.72    0.05   -0.97   -0.13    0.00    0.00      -0.94   -3.35   -0.45
#  17   -9.71   -0.63    0.04    3.96   -0.43    0.00    0.00      -6.77   18.63   -2.01
#  18    4.02   -0.70    0.05   -1.97   -0.10    0.00    0.00       1.30   -8.36   -0.43
#  19   -4.25   -0.94    0.10    2.31   -0.20    0.00    0.00      -2.99    7.72   -0.67
#  20    6.88   -1.19    0.11   -6.51    0.60    0.00    0.00      -0.11  -17.93    1.64
#  21   -3.87   -1.32    0.21    4.26   -0.22    0.00    0.00      -0.93   12.67   -0.64
#  22    2.15   -1.19    0.25   -2.94    0.10    0.00    0.00      -1.63  -10.19    0.33
#  23    1.34   -1.43    0.20   -1.14   -0.15    0.00    0.00      -1.20   -3.08   -0.41
#  24    0.65   -1.69    0.33   -0.16   -0.22    0.00    0.00      -1.10   -0.32   -0.44
#  25    2.26   -2.19    0.77   -1.57   -0.25    0.00    0.00      -0.98   -2.95   -0.47
#  26   -1.43   -2.11    0.64    0.31   -0.19    0.00    0.00      -2.78    0.57   -0.34
#  27    0.74   -2.21    2.82   -1.02   -0.29    0.00    0.00       0.03   -1.70   -0.48
#  28    1.18   -1.63    0.21   -1.41   -0.26    0.00    0.00      -1.92   -2.55   -0.47
#  29    0.08   -1.49    0.19   -0.35   -0.19    0.00    0.00      -1.77   -0.84   -0.46
#  30    2.82   -1.03    0.07   -2.83   -0.14    0.00    0.00      -1.12   -8.07   -0.41
#  31   -3.38   -0.79    0.03    2.73   -0.30    0.00    0.00      -1.72    8.79   -0.97
#  32   11.18   -0.63    0.02   -4.72    0.23    0.00    0.00       6.07  -19.91    0.96
#  33   -9.30   -0.01    0.00    2.80    0.06    0.00    0.00      -6.45   22.37    0.44
#  34   -2.85   -0.44    0.14    0.53   -0.08    0.00    0.00      -2.70    1.79   -0.28
#  35   -3.91   -0.74    0.68    1.10   -0.07    0.00    0.00      -2.94    3.50   -0.22
#  36   -1.46   -0.16    0.01    0.91   -0.05    0.00    0.00      -0.74    5.03   -0.28
#  37   -0.95   -0.08    0.00    0.44   -0.01    0.00    0.00      -0.60    6.33   -0.21
#  38   -1.11   -0.04    0.00    0.23   -0.01    0.00    0.00      -0.93    5.68   -0.28
#  39   -2.56   -0.14    0.01    0.69   -0.03    0.00    0.00      -2.03    5.00   -0.21
#  40   -2.54   -0.23    0.04    1.19   -0.06    0.00    0.00      -1.59    5.72   -0.28
#  41   -1.31   -0.05    0.00    0.48   -0.01    0.00    0.00      -0.89    9.97   -0.28
#  42   -1.11   -0.03    0.00    0.25   -0.01    0.00    0.00      -0.89    8.15   -0.28
#  43   -0.54   -0.03    0.00    0.24   -0.01    0.00    0.00      -0.34    6.78   -0.28
#  44   -0.51   -0.02    0.00    0.18   -0.01    0.00    0.00      -0.35    6.84   -0.22
#  45   -0.60   -0.03    0.00    0.12   -0.01    0.00    0.00      -0.52    3.09   -0.21
#  46   -2.54   -0.36    0.16    2.15   -0.06    0.00    0.00      -0.65    9.13   -0.27
#  47   -1.17   -0.13    0.02    0.94   -0.03    0.00    0.00      -0.37    8.42   -0.28
#  48   -3.70   -0.27    0.07    1.60   -0.06    0.00    0.00      -2.36    7.45   -0.28
#  49   -5.14   -0.73    0.40    1.22   -0.13    0.00    0.00      -4.37    2.73   -0.28
#  50   -3.45   -0.72    0.59    0.33   -0.11    0.00    0.00      -3.36    0.82   -0.28
#  51   -0.39   -0.12    0.01    0.94   -0.04    0.00    0.00       0.40    6.81   -0.28
#  52   -2.95   -0.12    0.01    0.93   -0.03    0.00    0.00      -2.16    7.27   -0.21
#  53   -5.24   -0.02    0.00    3.91    0.13    0.00    0.00      -1.22   14.03    0.46
#  54   -2.10   -0.29    0.02    2.46   -0.08    0.00    0.00       0.01    6.84   -0.22
#  55   -3.04   -0.57    0.17    1.61   -0.14    0.00    0.00      -1.96    3.25   -0.28
#  56   -1.24   -0.35    0.03    0.73   -0.14    0.00    0.00      -0.96    1.51   -0.28
#  57   -0.54   -0.32    0.04    0.62   -0.08    0.00    0.00      -0.27    2.14   -0.26
#  58   -3.20   -0.29    0.03    0.99   -0.07    0.00    0.00      -2.55    3.05   -0.22
#  59   -5.13   -0.18    0.01    2.25   -0.06    0.00    0.00      -3.11   11.26   -0.28

@<TRIPOS>MOLECULE
          T529944        26
   59    61     0     0     0



@<TRIPOS>ATOM
      1 C1          4.1012    -5.5586    91.0693 C.3        1           0.0725
      2 N1          4.5236    -6.7089    91.8722 N.pl3      1          -0.5963
      3 C2          5.1885    -7.8455    91.2302 C.3        1           0.1007
      4 C3          6.4784    -7.3695    90.5593 C.3        1          -0.1807
      5 C4          7.1728    -8.5566    89.8888 C.3        1          -0.0101
      6 N2          8.4112    -8.0994    89.2445 N.4        1          -0.3852
      7 H1          8.2520    -7.2043    88.8068 H          1           0.4244
      8 C5          8.8232    -9.0757    88.2272 C.3        1          -0.0603
      9 C6          9.4695    -7.9690    90.2550 C.3        1           0.0459
     10 C7         10.5549    -7.0638    89.7317 C.ar       1          -0.1392
     11 C8         10.2224    -5.8764    89.1060 C.ar       1          -0.1078
     12 C9         11.2168    -5.0454    88.6251 C.ar       1          -0.0794
     13 C10        12.5448    -5.4004    88.7694 C.ar       1          -0.1163
     14 C11        12.8788    -6.5889    89.3960 C.ar       1           0.1136
     15 F1         14.1765    -6.9369    89.5376 F          1          -0.1224
     16 C12        11.8820    -7.4181    89.8821 C.ar       1          -0.1340
     17 C13         4.2936    -6.7218    93.2433 C.ar       1           0.4558
     18 C14         5.1668    -7.4040    94.0803 C.ar       1          -0.2384
     19 C15         4.9238    -7.4076    95.4495 C.ar       1           0.3188
     20 N3          5.7765    -8.0801    96.3250 N.am       1          -0.6658
     21 C16         6.4413    -9.1763    95.9094 C.2        1           0.5775
     22 O1          6.2979    -9.5790    94.7713 O.2        1          -0.4892
     23 C17         7.3442    -9.8882    96.8363 C.ar       1          -0.1750
     24 C18         7.9568    -9.1991    97.8853 C.ar       1          -0.0507
     25 C19         8.7981    -9.8685    98.7478 C.ar       1          -0.1598
     26 C20         9.0370   -11.2236    98.5752 C.ar       1           0.1541
     27 F2          9.8629   -11.8747    99.4232 F          1          -0.1195
     28 C21         8.4310   -11.9126    97.5357 C.ar       1          -0.1583
     29 C22         7.5838   -11.2542    96.6705 C.ar       1          -0.0137
     30 C23         3.8055    -6.7208    95.9266 C.ar       1          -0.1711
     31 C24         2.9855    -6.0672    95.0330 C.ar       1           0.1628
     32 N4          3.2465    -6.0786    93.7386 N.ar       1          -0.5202
     33 H2          2.6534    -5.6064    93.1336 H          1           0.4336
     34 H3          3.6289    -4.8184    91.7152 H          1           0.0866
     35 H4          4.9707    -5.1152    90.5839 H          1           0.0921
     36 H5          3.3896    -5.8861    90.3113 H          1           0.0970
     37 H6          5.4264    -8.5988    91.9814 H          1           0.0896
     38 H7          4.5263    -8.2773    90.4797 H          1           0.1244
     39 H8          6.2405    -6.6162    89.8081 H          1           0.1077
     40 H9          7.1405    -6.9377    91.3097 H          1           0.0886
     41 H10         7.4107    -9.3099    90.6399 H          1           0.1362
     42 H11         6.5107    -8.9883    89.1382 H          1           0.1418
     43 H12         9.7422    -8.7363    87.7492 H          1           0.1286
     44 H13         8.9952   -10.0426    88.6999 H          1           0.1228
     45 H14         8.0381    -9.1725    87.4773 H          1           0.1303
     46 H15         9.0506    -7.5442    91.1671 H          1           0.1411
     47 H16         9.8888    -8.9517    90.4709 H          1           0.1440
     48 H17         9.1851    -5.5981    88.9928 H          1           0.1400
     49 H18        10.9560    -4.1185    88.1360 H          1           0.1504
     50 H19        13.3216    -4.7512    88.3933 H          1           0.1527
     51 H20        12.1415    -8.3434    90.3749 H          1           0.1433
     52 H21         6.0215    -7.9244    93.6740 H          1           0.1833
     53 H22         5.8909    -7.7588    97.2331 H          1           0.4306
     54 H23         7.7720    -8.1437    98.0202 H          1           0.1347
     55 H24         9.2724    -9.3368    99.5593 H          1           0.1519
     56 H25         8.6202   -12.9679    97.4060 H          1           0.1547
     57 H26         7.1093   -11.7927    95.8634 H          1           0.1527
     58 H27         3.5858    -6.7026    96.9840 H          1           0.1950
     59 H28         2.1192    -5.5345    95.3969 H          1           0.2136
@<TRIPOS>BOND
     1    1    2 1
     2    1   34 1
     3    1   35 1
     4    1   36 1
     5    2    3 1
     6    2   17 1
     7    3    4 1
     8    3   37 1
     9    3   38 1
    10    4    5 1
    11    4   39 1
    12    4   40 1
    13    5    6 1
    14    5   41 1
    15    5   42 1
    16    6    7 1
    17    6    8 1
    18    6    9 1
    19    8   43 1
    20    8   44 1
    21    8   45 1
    22    9   10 1
    23    9   46 1
    24    9   47 1
    25   10   16 ar
    26   10   11 ar
    27   11   12 ar
    28   11   48 1
    29   12   13 ar
    30   12   49 1
    31   13   14 ar
    32   13   50 1
    33   14   15 1
    34   14   16 ar
    35   16   51 1
    36   17   32 ar
    37   17   18 ar
    38   18   19 ar
    39   18   52 1
    40   19   20 1
    41   19   30 ar
    42   20   21 am
    43   20   53 1
    44   21   22 2
    45   21   23 1
    46   23   29 ar
    47   23   24 ar
    48   24   25 ar
    49   24   54 1
    50   25   26 ar
    51   25   55 1
    52   26   27 1
    53   26   28 ar
    54   28   29 ar
    55   28   56 1
    56   29   57 1
    57   30   31 ar
    58   30   58 1
    59   31   32 ar
    60   31   59 1
    61   32   33 1
##########                 Name:               T79144
##########          Protonation:                   99
##########               SMILES:   c1c(cc(c(c1)Cl)Cl)/C=C\C(=O)NCCCCC[NH+]2CC[C@@H](CC2)c3c4c([nH]c3)cc(cc4)O
##########            Long Name:   -N-[5-[4-(6-hydroxy-1H-indol-3-yl)piperidin-1-ium-1-yl]pentyl]prop-2-enamide
##########          FlexRecCode: 1
##########               Number:                  190
##########   Ligand Source File: /raidb/db2/rgc/tcams/tcams-0000168.db2.gz
##########           GlobalRank: 377
##########                 Rank:                    1
##########               Setnum:                   74
##########             Matchnum:                 2718
##########                Cloud:                    1
##########        Electrostatic:           -40.187912
##########        Van der Waals:           -31.478987
##########  Ligand Polar Desolv:             9.872352
########## Ligand Apolar Desolv:            -2.624475
##########      Internal Energy:             0.000000
##########      Receptor Energy: 0.0
########## Receptor Desolvation:             0.000000
########## Receptor Hydrophobic:             0.000000
##########         Total Energy: -64.42
##########        Ligand Charge:             1.000000
##########            Arbitrary:    +999.9990
##########     heavy atom count:   34
##########           pose count:    1
##########        Ligand Energy:             0.000000
# num electro vdwattr vdwrepu polsolv apolsol rdesolv rhydroe totalscore fullpol fullapo
#   1    6.75   -2.68    1.32   -1.01    0.65    0.00    0.00       5.04   -1.83    1.19
#   2   -1.00   -1.72    0.25    0.07   -0.16    0.00    0.00      -2.56    0.14   -0.31
#   3    0.56   -1.92    0.48   -0.56   -0.19    0.00    0.00      -1.64   -1.37   -0.46
#   4    0.23   -1.57    0.28   -0.17   -0.17    0.00    0.00      -1.41   -0.48   -0.47
#   5    0.92   -1.48    0.23   -0.56   -0.17    0.00    0.00      -1.06   -1.48   -0.45
#   6   -1.10   -1.82    0.63    0.19   -0.37    0.00    0.00      -2.48    0.39   -0.78
#   7    9.10   -2.28    0.71   -3.89    0.63    0.00    0.00       4.27   -7.18    1.17
#   8   -1.16   -2.09    0.34    0.56   -0.53    0.00    0.00      -2.89    0.99   -0.94
#   9    2.44   -1.50    0.16   -1.26   -0.16    0.00    0.00      -0.32   -2.69   -0.35
#  10    0.24   -0.90    0.11   -0.14   -0.07    0.00    0.00      -0.77   -0.33   -0.17
#  11    1.65   -1.00    0.13   -1.53   -0.09    0.00    0.00      -0.83   -3.77   -0.21
#  12    0.14   -0.78    0.06    0.18   -0.16    0.00    0.00      -0.56    0.48   -0.42
#  13    9.14   -0.69    0.04   -3.40    0.12    0.00    0.00       5.21  -11.86    0.43
#  14  -12.54   -0.01    0.00    2.59    0.08    0.00    0.00      -9.88   17.47    0.56
#  15    0.28   -0.50    0.06   -0.11   -0.06    0.00    0.00      -0.33   -0.48   -0.28
#  16    2.88   -0.40    0.03   -0.84   -0.04    0.00    0.00       1.63   -3.99   -0.21
#  17    3.06   -0.60    0.11   -0.64   -0.05    0.00    0.00       1.88   -2.82   -0.22
#  18    3.57   -0.77    0.19   -0.58   -0.06    0.00    0.00       2.36   -2.30   -0.22
#  19   -3.00   -1.57    0.66    0.51   -0.15    0.00    0.00      -3.55    1.47   -0.43
#  20    7.18   -3.24    3.08   -3.13    0.80    0.00    0.00       4.70   -9.06    2.33
#  21   -1.63   -1.46    0.66    1.19   -0.16    0.00    0.00      -1.40    4.44   -0.59
#  22    1.20   -0.51    0.04   -0.44    0.06    0.00    0.00       0.34   -2.24    0.29
#  23    0.65   -1.54    0.66   -0.63   -0.13    0.00    0.00      -0.99   -2.21   -0.45
#  24    0.05   -1.07    0.15   -0.14   -0.12    0.00    0.00      -1.14   -0.51   -0.44
#  25    0.44   -0.66    0.05   -0.06   -0.06    0.00    0.00      -0.29   -0.29   -0.30
#  26    0.58   -0.83    0.06   -0.05   -0.09    0.00    0.00      -0.33   -0.16   -0.30
#  27    0.71   -0.61    0.03   -0.03   -0.07    0.00    0.00       0.03   -0.15   -0.30
#  28    1.19   -2.42    0.74   -0.05   -0.32    0.00    0.00      -0.86   -0.14   -0.95
#  29    0.28   -0.32    0.01   -0.02   -0.04    0.00    0.00      -0.09   -0.16   -0.30
#  30    0.48   -0.82    0.09   -0.02   -0.14    0.00    0.00      -0.40   -0.11   -0.95
#  31    0.92   -0.20    0.00   -0.04   -0.04    0.00    0.00       0.64   -0.49   -0.46
#  32    0.54   -0.29    0.01   -0.07   -0.05    0.00    0.00       0.14   -0.59   -0.45
#  33    0.38   -0.99    0.20    0.05   -0.16    0.00    0.00      -0.52    0.12   -0.39
#  34    2.97   -1.10    0.29   -1.41   -0.08    0.00    0.00       0.67   -3.72   -0.21
#  35    1.18   -1.72    0.26   -0.58   -0.26    0.00    0.00      -1.12   -1.02   -0.46
#  36   -7.50   -0.09    0.01    1.57    0.58    0.00    0.00      -5.43    3.26    1.21
#  37   -0.21   -0.56    0.24    0.28   -0.09    0.00    0.00      -0.35    0.84   -0.28
#  38   -0.29   -0.32    0.10    0.57   -0.06    0.00    0.00      -0.01    2.47   -0.28
#  39   -7.44   -0.04    0.00    2.76    0.29    0.00    0.00      -4.43    5.57    0.59
#  40   -3.51   -0.54    0.08    3.07   -0.16    0.00    0.00      -1.05    5.48   -0.28
#  41   -1.61   -0.57    0.66    0.68   -0.09    0.00    0.00      -0.94    2.01   -0.28
#  42   -0.37   -0.37    0.12    0.76   -0.06    0.00    0.00       0.08    2.87   -0.22
#  43   -1.22   -0.55    0.21    0.56   -0.12    0.00    0.00      -1.11    1.35   -0.28
#  44   -2.19   -0.20    0.01    1.21   -0.06    0.00    0.00      -1.23    5.33   -0.28
#  45   -3.10   -0.49    0.18    1.52   -0.09    0.00    0.00      -1.98    4.93   -0.28
#  46   -1.04   -0.19    0.04    0.58   -0.02    0.00    0.00      -0.64    4.04   -0.15
#  47   -0.79   -0.19    0.05    0.70   -0.04    0.00    0.00      -0.28    4.98   -0.28
#  48   -2.34   -0.18    0.03    0.58   -0.05    0.00    0.00      -1.96    3.41   -0.28
#  49   -0.98   -0.08    0.00    0.27   -0.02    0.00    0.00      -0.81    3.27   -0.22
#  50   -1.33   -0.09    0.00    0.13   -0.02    0.00    0.00      -1.31    1.49   -0.28
#  51   -3.11   -0.40    0.21    0.30   -0.06    0.00    0.00      -3.06    1.33   -0.28
#  52   -2.78   -0.46    0.27    0.41   -0.06    0.00    0.00      -2.62    1.82   -0.28
#  53   -1.14   -0.07    0.00    0.13   -0.02    0.00    0.00      -1.10    1.93   -0.28
#  54   -0.70   -0.29    0.08    0.07   -0.07    0.00    0.00      -0.90    0.28   -0.28
#  55   -3.35   -1.62    4.62    0.10   -0.13    0.00    0.00      -0.37    0.22   -0.28
#  56  -13.61   -0.17    0.07    2.78    0.21    0.00    0.00     -10.72    7.25    0.56
#  57   -0.32   -0.42    0.20    0.85   -0.07    0.00    0.00       0.24    3.34   -0.28
#  58   -0.66   -0.40    0.18    0.67   -0.07    0.00    0.00      -0.28    2.76   -0.28
#  59   -3.51   -0.24    0.02    0.17   -0.07    0.00    0.00      -3.62    0.61   -0.25
#  60   -0.89   -0.02    0.00    0.03   -0.01    0.00    0.00      -0.89    0.95   -0.28
#  61   -0.46   -0.04    0.00    0.08   -0.01    0.00    0.00      -0.44    1.86   -0.28
#  62   -5.66   -0.65    0.92    1.58   -0.06    0.00    0.00      -3.87    5.44   -0.21
#  63   -4.51   -0.39    0.07    2.14   -0.12    0.00    0.00      -2.81    5.01   -0.28
#  64   -2.62   -1.05    1.38    0.62   -0.11    0.00    0.00      -1.77    1.59   -0.28
#  65   -1.42   -0.24    0.04    0.53   -0.04    0.00    0.00      -1.13    2.95   -0.21
#  66   -0.80   -0.42    0.06    0.21   -0.14    0.00    0.00      -1.09    0.42   -0.28

@<TRIPOS>MOLECULE
           T79144        99
   66    69     0     0     0



@<TRIPOS>ATOM
      1 O1          8.1339   -13.8408    96.4393 O.3        1          -0.4958
      2 C1          7.9247   -12.5141    96.6499 C.ar       1           0.1358
      3 C2          7.0981   -11.7997    95.7859 C.ar       1          -0.1595
      4 C3          6.8773   -10.4666    95.9831 C.ar       1          -0.0599
      5 C4          7.4837    -9.8133    97.0583 C.ar       1          -0.1091
      6 C5          8.3195   -10.5282    97.9351 C.ar       1           0.1137
      7 N1          8.7691    -9.6378    98.8844 N.pl3      1          -0.5885
      8 C6          8.2497    -8.3945    98.6392 C.2        1           0.0657
      9 C7          7.4656    -8.4331    97.5510 C.2        1          -0.1807
     10 C8          6.7096    -7.2765    96.9493 C.3        1          -0.0147
     11 C9          5.2114    -7.5931    96.9406 C.3        1          -0.1416
     12 C10         4.4580    -6.4501    96.2567 C.3        1          -0.0072
     13 N2          4.9361    -6.3006    94.8771 N.4        1          -0.3804
     14 H1          4.4008    -5.5824    94.4127 H          1           0.4254
     15 C11         4.7694    -7.5730    94.1620 C.3        1          -0.0214
     16 C12         5.2673    -7.4187    92.7236 C.3        1          -0.1467
     17 C13         4.4590    -6.3277    92.0185 C.3        1          -0.1143
     18 C14         4.9569    -6.1733    90.5800 C.3        1          -0.1324
     19 C15         4.1484    -5.0823    89.8749 C.3        1           0.1188
     20 N3          4.6253    -4.9345    88.4975 N.am       1          -0.7309
     21 C16         4.0722    -5.6672    87.5107 C.2        1           0.5383
     22 O2          3.1767    -6.4516    87.7638 O.2        1          -0.5214
     23 C17         4.5485    -5.5196    86.1345 C.2        1          -0.2151
     24 C18         5.8374    -5.7799    85.8354 C.2        1          -0.0129
     25 C19         6.7008    -6.4491    86.8215 C.ar       1          -0.0565
     26 C20         7.8540    -5.8126    87.2921 C.ar       1          -0.0297
     27 C21         8.6581    -6.4458    88.2168 C.ar       1          -0.0366
     28 Cl1        10.0898    -5.6583    88.8031 Cl         1          -0.0524
     29 C22         8.3250    -7.7101    88.6793 C.ar       1          -0.0215
     30 Cl2         9.3424    -8.5002    89.8430 Cl         1          -0.0475
     31 C23         7.1841    -8.3451    88.2174 C.ar       1          -0.1055
     32 C24         6.3687    -7.7218    87.2968 C.ar       1          -0.0822
     33 C25         6.3554    -5.9266    94.8795 C.3        1          -0.0119
     34 C26         7.1817    -7.0493    95.5102 C.3        1          -0.1406
     35 C27         8.5291   -11.8868    97.7228 C.ar       1          -0.1568
     36 H2          7.6719   -14.1941    95.6669 H          1           0.3962
     37 H3          6.6289   -12.3035    94.9538 H          1           0.1335
     38 H4          6.2356    -9.9186    95.3091 H          1           0.1255
     39 H5          9.3646    -9.8584    99.6177 H          1           0.4219
     40 H6          8.4423    -7.5137    99.2336 H          1           0.1648
     41 H7          6.8900    -6.3773    97.5383 H          1           0.0951
     42 H8          5.0385    -8.5207    96.3950 H          1           0.0870
     43 H9          4.8562    -7.7014    97.9654 H          1           0.1133
     44 H10         3.3909    -6.6722    96.2490 H          1           0.1308
     45 H11         4.6313    -5.5232    96.8034 H          1           0.1314
     46 H12         5.3452    -8.3503    94.6645 H          1           0.1341
     47 H13         3.7151    -7.8499    94.1539 H          1           0.1308
     48 H14         6.3215    -7.1419    92.7318 H          1           0.0876
     49 H15         5.1437    -8.3628    92.1930 H          1           0.0877
     50 H16         3.4048    -6.6046    92.0103 H          1           0.0766
     51 H17         4.5826    -5.3837    92.5490 H          1           0.0785
     52 H18         6.0112    -5.8965    90.5882 H          1           0.0745
     53 H19         4.8331    -7.1174    90.0495 H          1           0.0737
     54 H20         3.0943    -5.3592    89.8667 H          1           0.0685
     55 H21         4.2722    -4.1382    90.4054 H          1           0.0697
     56 H22         5.3390    -4.3095    88.2957 H          1           0.4013
     57 H23         3.8676    -5.2021    85.3585 H          1           0.1387
     58 H24         6.2359    -5.4974    84.8723 H          1           0.1473
     59 H25         8.1145    -4.8283    86.9322 H          1           0.1305
     60 H26         6.9305    -9.3295    88.5822 H          1           0.1442
     61 H27         5.4773    -8.2167    86.9407 H          1           0.1399
     62 H28         6.6891    -5.7620    93.8550 H          1           0.1308
     63 H29         6.4882    -5.0106    95.4554 H          1           0.1312
     64 H30         8.2350    -6.7688    95.5128 H          1           0.1127
     65 H31         7.0497    -7.9657    94.9350 H          1           0.0876
     66 H32         9.1651   -12.4482    98.3910 H          1           0.1306
@<TRIPOS>BOND
     1    1    2 1
     2    1   36 1
     3    2   35 ar
     4    2    3 ar
     5    3    4 ar
     6    3   37 1
     7    4    5 ar
     8    4   38 1
     9    5    9 1
    10    5    6 ar
    11    6    7 1
    12    6   35 ar
    13    7    8 1
    14    7   39 1
    15    8    9 2
    16    8   40 1
    17    9   10 1
    18   10   34 1
    19   10   11 1
    20   10   41 1
    21   11   12 1
    22   11   42 1
    23   11   43 1
    24   12   13 1
    25   12   44 1
    26   12   45 1
    27   13   14 1
    28   13   15 1
    29   13   33 1
    30   15   16 1
    31   15   46 1
    32   15   47 1
    33   16   17 1
    34   16   48 1
    35   16   49 1
    36   17   18 1
    37   17   50 1
    38   17   51 1
    39   18   19 1
    40   18   52 1
    41   18   53 1
    42   19   20 1
    43   19   54 1
    44   19   55 1
    45   20   21 am
    46   20   56 1
    47   21   22 2
    48   21   23 1
    49   23   24 2
    50   23   57 1
    51   24   25 1
    52   24   58 1
    53   25   32 ar
    54   25   26 ar
    55   26   27 ar
    56   26   59 1
    57   27   28 1
    58   27   29 ar
    59   29   30 1
    60   29   31 ar
    61   31   32 ar
    62   31   60 1
    63   32   61 1
    64   33   34 1
    65   33   62 1
    66   33   63 1
    67   34   64 1
    68   34   65 1
    69   35   66 1
##########                 Name:              T537085
##########          Protonation:                   11
##########               SMILES:   CC1(NC(=[NH2+])NC(=[NH2+])N1OCCCOc2ccc(cc2)[N+](=O)[O-])C
##########            Long Name:   ,6-dimethyl-1-[3-(4-nitrophenoxy)propoxy]-1,3,5-triazinan-2-ylidene]ammonium
##########          FlexRecCode: 1
##########               Number:                  122
##########   Ligand Source File: /raidb/db2/rgc/tcams/tcams-0001589.db2.gz
##########           GlobalRank: 377
##########                 Rank:                    1
##########               Setnum:                  101
##########             Matchnum:                 4828
##########                Cloud:                    1
##########        Electrostatic:           -65.025429
##########        Van der Waals:           -23.365459
##########  Ligand Polar Desolv:            26.736467
########## Ligand Apolar Desolv:            -2.768896
##########      Internal Energy:             0.000000
##########      Receptor Energy: 0.0
########## Receptor Desolvation:             0.000000
########## Receptor Hydrophobic:             0.000000
##########         Total Energy: -64.42
##########        Ligand Charge:             2.000000
##########            Arbitrary:    +999.9990
##########     heavy atom count:   24
##########           pose count:    1
##########        Ligand Energy:             0.000000
# num electro vdwattr vdwrepu polsolv apolsol rdesolv rhydroe totalscore fullpol fullapo
#   1    1.34   -0.62    0.11   -2.37   -0.05    0.00    0.00      -1.59   -8.36   -0.18
#   2   -6.10   -0.35    0.01    3.69   -0.08    0.00    0.00      -2.83   18.42   -0.38
#   3    2.85   -0.45    0.02   -1.74   -0.04    0.00    0.00       0.64   -6.99   -0.16
#   4   11.18   -0.47    0.01   -6.22    0.29    0.00    0.00       4.79  -32.90    1.52
#   5  -23.23   -1.27    0.33   10.15   -1.21    0.00    0.00     -15.23   38.04   -4.53
#   6   22.16   -2.19    1.05  -10.18    0.28    0.00    0.00      11.13  -31.92    0.89
#   7   -8.95   -0.01    0.00    4.71    0.12    0.00    0.00      -4.13   23.81    0.60
#   8  -24.83   -0.13    0.03    9.45    0.23    0.00    0.00     -15.26   24.69    0.60
#   9   28.08   -2.54    2.34  -11.23    0.40    0.00    0.00      17.06  -31.91    1.15
#  10  -23.91   -1.23    0.11   14.07   -1.67    0.00    0.00     -12.63   36.78   -4.37
#  11   22.79   -2.77    0.86  -15.60    0.44    0.00    0.00       5.72  -31.63    0.89
#  12  -18.34   -0.05    0.00   13.02    0.32    0.00    0.00      -5.05   24.67    0.60
#  13  -13.83   -0.06    0.00    9.23    0.19    0.00    0.00      -4.48   22.43    0.45
#  14   10.31   -0.71    0.02   -6.12    0.24    0.00    0.00       3.74  -21.89    0.87
#  15    1.19   -0.85    0.04   -1.71    0.17    0.00    0.00      -1.16   -4.28    0.43
#  16   -0.06   -1.03    0.23    0.20   -0.05    0.00    0.00      -0.71    0.52   -0.13
#  17    1.92   -0.86    0.09   -1.52   -0.10    0.00    0.00      -0.48   -3.89   -0.25
#  18   -0.67   -0.93    0.10    0.17   -0.04    0.00    0.00      -1.37    0.41   -0.09
#  19    2.20   -1.02    0.12   -2.58    0.30    0.00    0.00      -0.98   -7.69    0.89
#  20   -1.10   -1.30    0.15    1.64   -0.11    0.00    0.00      -0.72    4.72   -0.31
#  21    1.07   -1.21    0.16   -1.24   -0.14    0.00    0.00      -1.36   -3.85   -0.42
#  22    0.10   -1.17    0.10   -0.13   -0.18    0.00    0.00      -1.27   -0.33   -0.45
#  23    0.69   -1.31    0.09   -0.88   -0.35    0.00    0.00      -1.76   -1.75   -0.70
#  24    0.09   -1.44    0.18   -0.29   -0.23    0.00    0.00      -1.68   -0.57   -0.45
#  25    1.25   -1.60    0.34   -1.14   -0.19    0.00    0.00      -1.34   -2.82   -0.46
#  26   -0.25   -2.90    0.79    0.14    0.23    0.00    0.00      -2.00    0.25    0.42
#  27    0.08   -5.59    5.21   -0.57   -0.39    0.00    0.00      -1.27   -0.93   -0.63
#  28    1.76   -5.04    6.11   -0.45   -0.33    0.00    0.00       2.05   -0.86   -0.63
#  29   -0.42   -0.13    0.01    0.56   -0.04    0.00    0.00      -0.02    3.82   -0.27
#  30    0.57   -0.56    0.74    0.88   -0.06    0.00    0.00       1.57    4.12   -0.28
#  31   -0.93   -0.20    0.01    1.24   -0.06    0.00    0.00       0.06    5.14   -0.26
#  32   -1.94   -0.26    0.05    0.62   -0.06    0.00    0.00      -1.58    2.92   -0.27
#  33   -1.06   -0.10    0.00    0.23   -0.03    0.00    0.00      -0.96    2.21   -0.28
#  34   -2.50   -0.15    0.00    0.61   -0.04    0.00    0.00      -2.07    3.88   -0.28
#  35   -4.67    0.00    0.00    1.36    0.04    0.00    0.00      -3.28   21.62    0.58
#  36  -29.50   -0.19    0.11    8.24    0.18    0.00    0.00     -21.16   26.38    0.59
#  37   -0.54   -0.67    0.42    1.89   -0.10    0.00    0.00       1.00    4.89   -0.26
#  38   -0.08   -0.46    0.48    1.39   -0.05    0.00    0.00       1.28    6.31   -0.22
#  39   -2.23   -0.18    0.01    0.44   -0.05    0.00    0.00      -2.02    2.46   -0.28
#  40   -2.00   -0.49    0.19    0.68   -0.11    0.00    0.00      -1.73    1.77   -0.28
#  41   -1.19   -0.25    0.02    0.97   -0.07    0.00    0.00      -0.52    3.70   -0.27
#  42   -0.61   -0.61    0.33    1.63   -0.10    0.00    0.00       0.64    4.45   -0.27
#  43   -0.53   -0.22    0.03    1.29   -0.04    0.00    0.00       0.54    7.33   -0.22
#  44   -1.83   -0.25    0.03    0.71   -0.06    0.00    0.00      -1.40    2.95   -0.27
#  45   -1.53   -0.34    0.05    0.57   -0.11    0.00    0.00      -1.35    1.37   -0.27
#  46   -1.84   -0.39    0.13    0.93   -0.08    0.00    0.00      -1.26    3.26   -0.28

@<TRIPOS>MOLECULE
          T537085        11
   46    47     0     0     0



@<TRIPOS>ATOM
      1 C1          1.6717    -7.9535    93.8848 C.3        1          -0.1921
      2 C2          2.2632    -6.6064    93.4650 C.3        1           0.4028
      3 C3          1.1519    -5.6723    92.9820 C.3        1          -0.1746
      4 N1          3.2608    -6.8017    92.3987 N.pl3      1          -0.7062
      5 C4          4.1089    -5.7412    92.1144 C.cat      1           0.7706
      6 N2          4.3670    -5.3745    90.8916 N.pl3      1          -0.6649
      7 H1          3.9618    -5.8472    90.1477 H          1           0.4692
      8 H2          4.9644    -4.6288    90.7246 H          1           0.4610
      9 N3          4.6689    -5.0903    93.2129 N.pl3      1          -0.6702
     10 C5          3.8303    -4.9331    94.3155 C.cat      1           0.7660
     11 N4          3.8419    -3.8512    95.0409 N.pl3      1          -0.6715
     12 H3          4.4463    -3.1254    94.8196 H          1           0.4610
     13 H4          3.2463    -3.7714    95.8023 H          1           0.4598
     14 N5          2.9826    -5.9949    94.5959 N.pl3      1          -0.4875
     15 O1          2.8149    -6.4722    95.9184 O.3        1          -0.0641
     16 C6          3.7336    -7.5038    96.2849 C.3        1           0.0057
     17 C7          5.0795    -6.8790    96.6581 C.3        1          -0.1190
     18 C8          6.0630    -7.9834    97.0503 C.3        1           0.0586
     19 O2          6.2411    -8.8759    95.9486 O.3        1          -0.2986
     20 C9          7.0903    -9.9209    96.1322 C.ar       1           0.1725
     21 C10         7.3145   -10.8231    95.1025 C.ar       1          -0.2106
     22 C11         8.1786   -11.8844    95.2914 C.ar       1          -0.0122
     23 C12         8.8195   -12.0478    96.5056 C.ar       1          -0.0782
     24 C13         8.5973   -11.1503    97.5336 C.ar       1          -0.0103
     25 C14         7.7387   -10.0841    97.3477 C.ar       1          -0.1427
     26 N6          9.7447   -13.1857    96.7053 N.pl3      1           0.0313
     27 O3         10.3056   -13.3295    97.7665 O.2        1          -0.1542
     28 O4          9.9395   -13.9712    95.8072 O.3        1          -0.1471
     29 H5          1.1423    -8.3965    93.0412 H          1           0.1122
     30 H6          2.4742    -8.6201    94.2008 H          1           0.1256
     31 H7          0.9772    -7.8037    94.7114 H          1           0.0699
     32 H8          1.5840    -4.7164    92.6858 H          1           0.1103
     33 H9          0.6448    -6.1220    92.1285 H          1           0.1018
     34 H10         0.4355    -5.5129    93.7879 H          1           0.1164
     35 H11         3.3223    -7.6397    91.9141 H          1           0.4670
     36 H12         5.5833    -4.7670    93.2099 H          1           0.4816
     37 H13         3.3395    -8.0548    97.1387 H          1           0.0982
     38 H14         3.8695    -8.1845    95.4445 H          1           0.0714
     39 H15         5.4735    -6.3280    95.8042 H          1           0.1010
     40 H16         4.9434    -6.1983    97.4984 H          1           0.1064
     41 H17         7.0217    -7.5384    97.3163 H          1           0.0775
     42 H18         5.6689    -8.5344    97.9043 H          1           0.0739
     43 H19         6.8138   -10.6962    94.1540 H          1           0.1464
     44 H20         8.3532   -12.5872    94.4902 H          1           0.1598
     45 H21         9.0990   -11.2803    98.4812 H          1           0.1671
     46 H22         7.5689    -9.3808    98.1496 H          1           0.1591
@<TRIPOS>BOND
     1    1    2 1
     2    1   29 1
     3    1   30 1
     4    1   31 1
     5    2   14 1
     6    2    3 1
     7    2    4 1
     8    3   32 1
     9    3   33 1
    10    3   34 1
    11    4    5 1
    12    4   35 1
    13    5    6 2
    14    5    9 1
    15    6    7 1
    16    6    8 1
    17    9   10 1
    18    9   36 1
    19   10   11 2
    20   10   14 1
    21   11   12 1
    22   11   13 1
    23   14   15 1
    24   15   16 1
    25   16   17 1
    26   16   37 1
    27   16   38 1
    28   17   18 1
    29   17   39 1
    30   17   40 1
    31   18   19 1
    32   18   41 1
    33   18   42 1
    34   19   20 1
    35   20   25 ar
    36   20   21 ar
    37   21   22 ar
    38   21   43 1
    39   22   23 ar
    40   22   44 1
    41   23   24 ar
    42   23   26 1
    43   24   25 ar
    44   24   45 1
    45   25   46 1
    46   26   27 2
    47   26   28 1
##########                 Name:              T528572
##########          Protonation:                   94
##########               SMILES:   1cc(ccc1/C=C/C(=O)NCCCCC[NH+]2CCCN(CC2)C(=O)Nc3ccc(c(c3)C(F)(F)F)Cl)C(F)(F)F
##########            Long Name:   oromethyl)phenyl]prop-2-enoyl]amino]pentyl]-1,4-diazepan-4-ium-1-carboxamide
##########          FlexRecCode: 1
##########               Number:                  222
##########   Ligand Source File: /raidb/db2/rgc/tcams/tcams-0000411.db2.gz
##########           GlobalRank: 379
##########                 Rank:                    1
##########               Setnum:                  385
##########             Matchnum:                 1226
##########                Cloud:                    1
##########        Electrostatic:           -34.322300
##########        Van der Waals:           -34.202377
##########  Ligand Polar Desolv:             8.850014
########## Ligand Apolar Desolv:            -4.737833
##########      Internal Energy:             0.000000
##########      Receptor Energy: 0.0
########## Receptor Desolvation:             0.000000
########## Receptor Hydrophobic:             0.000000
##########         Total Energy: -64.41
##########        Ligand Charge:             1.000000
##########            Arbitrary:    +999.9990
##########     heavy atom count:   41
##########           pose count:    1
##########        Ligand Energy:             0.000000
# num electro vdwattr vdwrepu polsolv apolsol rdesolv rhydroe totalscore fullpol fullapo
#   1    0.08   -0.54    0.05   -0.13   -0.16    0.00    0.00      -0.70   -0.39   -0.48
#   2   -0.17   -0.38    0.03    0.34   -0.02    0.00    0.00      -0.19    1.55   -0.07
#   3    0.06   -0.13    0.00   -0.05   -0.04    0.00    0.00      -0.17   -0.56   -0.45
#   4    0.04   -0.52    0.09   -0.11   -0.14    0.00    0.00      -0.63   -0.36   -0.45
#   5    0.04   -0.51    0.03   -0.21   -0.07    0.00    0.00      -0.72   -1.07   -0.38
#   6    0.01   -0.33    0.02   -0.07   -0.05    0.00    0.00      -0.41   -0.53   -0.44
#   7    0.02   -0.40    0.07   -0.09   -0.05    0.00    0.00      -0.46   -0.80   -0.45
#   8    0.00   -0.79    0.41   -0.05   -0.06    0.00    0.00      -0.49   -0.35   -0.41
#   9    0.00   -0.51    0.15   -0.05   -0.05    0.00    0.00      -0.46   -0.45   -0.44
#  10    0.11   -0.18    0.01   -0.15   -0.03    0.00    0.00      -0.24   -1.93   -0.43
#  11   -3.02   -0.15    0.00    0.29   -0.04    0.00    0.00      -2.92    4.42   -0.65
#  12    5.29   -0.19    0.00   -0.15    0.04    0.00    0.00       4.98   -1.53    0.39
#  13    4.19   -0.15    0.00   -0.60    0.15    0.00    0.00       3.58   -9.57    2.33
#  14   -1.23   -0.26    0.01    0.22   -0.06    0.00    0.00      -1.33    1.45   -0.42
#  15    0.81   -0.59    0.07   -0.62   -0.05    0.00    0.00      -0.38   -2.52   -0.22
#  16    1.46   -0.46    0.04   -0.72   -0.05    0.00    0.00       0.26   -3.14   -0.22
#  17    4.25   -0.81    0.21   -1.19   -0.05    0.00    0.00       2.41   -4.54   -0.21
#  18    0.45   -0.46    0.04   -0.01   -0.08    0.00    0.00      -0.06   -0.04   -0.34
#  19   10.92   -0.84    0.19   -3.10    0.05    0.00    0.00       7.22  -12.06    0.19
#  20  -19.38   -0.05    0.01    4.19    0.11    0.00    0.00     -15.12   17.97    0.46
#  21    0.17   -0.48    0.04    0.05   -0.09    0.00    0.00      -0.31    0.22   -0.39
#  22    4.08   -1.18    0.48   -1.30   -0.08    0.00    0.00       2.01   -3.96   -0.24
#  23   -3.52   -1.31    0.31    1.08   -0.21    0.00    0.00      -3.66    2.40   -0.47
#  24   15.40   -1.80    0.59   -6.48    0.65    0.00    0.00       8.36  -14.40    1.44
#  25   -2.49   -1.31    0.34    0.78   -0.18    0.00    0.00      -2.85    1.77   -0.40
#  26    1.49   -0.56    0.02   -0.52   -0.12    0.00    0.00       0.31   -1.64   -0.37
#  27  -12.07   -2.48    2.26    5.65   -0.92    0.00    0.00      -7.56   12.23   -1.99
#  28    8.01   -2.03    0.37   -3.44    0.16    0.00    0.00       3.06   -7.09    0.32
#  29   11.31   -2.95    2.75   -6.66    0.87    0.00    0.00       5.31  -12.66    1.65
#  30   -2.53   -1.81    0.22    1.46   -0.36    0.00    0.00      -3.02    2.75   -0.67
#  31    1.54   -2.82    0.71   -0.55   -0.24    0.00    0.00      -1.36   -0.92   -0.40
#  32    1.57   -2.99    1.27   -0.47   -0.26    0.00    0.00      -0.87   -0.81   -0.46
#  33    0.03   -2.09    0.82   -0.19   -0.16    0.00    0.00      -1.59   -0.37   -0.30
#  34    0.18   -5.11    2.17   -0.26   -0.55    0.00    0.00      -3.57   -0.44   -0.91
#  35    1.38   -1.62    0.38   -0.63   -0.16    0.00    0.00      -0.65   -1.49   -0.37
#  36    0.98   -1.44    0.18   -0.37   -0.18    0.00    0.00      -0.83   -0.90   -0.44
#  37   -2.75   -0.98    0.11    1.33   -0.03    0.00    0.00      -2.31    3.14   -0.06
#  38    1.36   -0.83    0.06   -0.76   -0.24    0.00    0.00      -0.40   -1.39   -0.44
#  39   -0.48   -2.30    1.17   -0.35   -0.21    0.00    0.00      -2.17   -0.76   -0.45
#  40    1.17   -0.53    0.04   -0.27   -0.15    0.00    0.00       0.25   -0.80   -0.45
#  41    0.14   -1.09    0.38   -0.22   -0.10    0.00    0.00      -0.88   -0.97   -0.44
#  42    0.12   -1.04    0.19   -0.16   -0.11    0.00    0.00      -1.01   -0.66   -0.44
#  43   -0.04   -0.04    0.00    0.03   -0.01    0.00    0.00      -0.06    0.82   -0.27
#  44   -0.05   -0.04    0.00    0.06   -0.01    0.00    0.00      -0.04    1.33   -0.28
#  45   -0.28   -0.11    0.02    0.05   -0.02    0.00    0.00      -0.34    0.61   -0.26
#  46   -0.07   -0.02    0.00    0.08   -0.01    0.00    0.00      -0.02    3.23   -0.21
#  47   -1.15    0.00    0.00    0.23    0.02    0.00    0.00      -0.90    8.00    0.56
#  48   -1.32   -0.09    0.00    0.03   -0.03    0.00    0.00      -1.41    0.32   -0.28
#  49   -0.57   -0.07    0.00    0.02   -0.02    0.00    0.00      -0.64    0.35   -0.28
#  50   -0.96   -0.51    0.28    0.70   -0.09    0.00    0.00      -0.57    2.25   -0.28
#  51   -0.20   -0.14    0.01    0.32   -0.04    0.00    0.00      -0.04    2.28   -0.28
#  52   -0.75   -0.25    0.08    0.29   -0.06    0.00    0.00      -0.69    1.35   -0.28
#  53   -0.61   -0.05    0.00    0.08   -0.01    0.00    0.00      -0.60    1.47   -0.28
#  54   -2.29   -0.14    0.02    0.52   -0.03    0.00    0.00      -1.93    4.21   -0.28
#  55   -4.23   -1.01    1.48    1.36   -0.07    0.00    0.00      -2.47    4.15   -0.22
#  56   -3.00   -0.15    0.01    0.68   -0.05    0.00    0.00      -2.50    4.19   -0.28
#  57   -1.78   -0.08    0.00    0.37   -0.02    0.00    0.00      -1.50    5.41   -0.26
#  58   -1.45   -0.15    0.02    0.30   -0.03    0.00    0.00      -1.31    2.45   -0.24
#  59   -2.40   -0.10    0.00    0.55   -0.02    0.00    0.00      -1.98    5.77   -0.25
#  60   -2.28   -0.38    0.15    0.63   -0.06    0.00    0.00      -1.93    2.99   -0.28
#  61   -2.86   -0.67    0.71    1.59   -0.08    0.00    0.00      -1.31    5.15   -0.25
#  62   -3.14   -0.62    0.27    0.17   -0.11    0.00    0.00      -3.43    0.36   -0.24
#  63   -4.05   -0.68    0.62    0.66   -0.13    0.00    0.00      -3.58    1.41   -0.28
#  64   -3.16   -0.70    0.41    1.37   -0.08    0.00    0.00      -2.16    3.84   -0.22
#  65   -3.96   -0.51    0.11    2.53   -0.12    0.00    0.00      -1.95    5.71   -0.28
#  66   -3.94   -0.17    0.01    1.32   -0.03    0.00    0.00      -2.82    8.12   -0.20
#  67   -2.17   -0.14    0.00    0.46   -0.03    0.00    0.00      -1.87    3.95   -0.28
#  68   -6.55   -0.10    0.02    5.59    0.22    0.00    0.00      -0.82   11.33    0.44
#  69   -3.90   -0.96    0.39    0.83   -0.14    0.00    0.00      -3.76    1.36   -0.22
#  70   -3.19   -1.11    1.40    0.73   -0.16    0.00    0.00      -2.33    1.25   -0.28
#  71   -1.45   -0.20    0.01    0.80   -0.05    0.00    0.00      -0.90    3.82   -0.25
#  72   -0.71   -0.21    0.03    0.61   -0.04    0.00    0.00      -0.32    3.05   -0.21
#  73   -0.84   -0.41    0.21    0.42   -0.07    0.00    0.00      -0.68    1.61   -0.27

@<TRIPOS>MOLECULE
          T528572        94
   73    75     0     0     0



@<TRIPOS>ATOM
      1 F1          3.9186   -17.5948    91.4932 F          1          -0.1737
      2 C1          3.0721   -16.7859    90.7275 C.3        1           0.5064
      3 F2          2.9920   -17.2945    89.4266 F          1          -0.1752
      4 F3          1.7964   -16.7711    91.3017 F          1          -0.1740
      5 C2          3.6205   -15.3829    90.6854 C.ar       1          -0.1696
      6 C3          2.9428   -14.3995    89.9859 C.ar       1          -0.0697
      7 C4          3.4380   -13.1133    89.9431 C.ar       1          -0.0931
      8 C5          4.6280   -12.8037    90.6089 C.ar       1          -0.0492
      9 C6          5.1631   -11.4330    90.5687 C.2        1          -0.0138
     10 C7          4.7677   -10.5831    89.5999 C.2        1          -0.2118
     11 C8          5.3001    -9.2196    89.5598 C.2        1           0.5488
     12 O1          6.0994    -8.8536    90.4013 O.2        1          -0.5370
     13 N1          4.9047    -8.3700    88.5912 N.am       1          -0.7314
     14 C9          5.4373    -7.0057    88.5512 C.3        1           0.1173
     15 C10         4.2865    -6.0051    88.6747 C.3        1          -0.1324
     16 C11         3.5562    -6.2288    90.0003 C.3        1          -0.1155
     17 C12         4.5332    -6.0284    91.1607 C.3        1          -0.1492
     18 C13         3.8029    -6.2521    92.4865 C.3        1          -0.0195
     19 N2          4.7409    -6.0597    93.6007 N.4        1          -0.3647
     20 H1          5.3396    -5.2742    93.3941 H          1           0.4185
     21 C14         5.5458    -7.2367    93.7431 C.3        1          -0.0083
     22 C15         7.0204    -6.9909    94.1703 C.3        1          -0.1568
     23 C16         7.0496    -5.8326    95.2089 C.3        1           0.1132
     24 N3          5.9868    -5.8231    96.1668 N.am       1          -0.6331
     25 C17         4.7457    -5.0552    95.8535 C.3        1           0.0876
     26 C18         3.9768    -5.7728    94.8292 C.3        1          -0.0595
     27 C19         6.1039    -6.4947    97.3295 C.2        1           0.7013
     28 O2          5.1148    -6.9491    97.8713 O.2        1          -0.5419
     29 N4          7.3174    -6.6627    97.8913 N.am       1          -0.6812
     30 C20         7.8149    -7.9529    98.1101 C.ar       1           0.1555
     31 C21         8.6732    -8.1962    99.1745 C.ar       1          -0.0728
     32 C22         9.1625    -9.4698    99.3881 C.ar       1          -0.0853
     33 C23         8.7983   -10.5032    98.5427 C.ar       1          -0.0027
     34 Cl1         9.4152   -12.1031    98.8140 Cl         1          -0.0285
     35 C24         7.9429   -10.2636    97.4818 C.ar       1          -0.1545
     36 C25         7.4465    -8.9925    97.2669 C.ar       1          -0.0870
     37 C26         7.5481   -11.3913    96.5635 C.3        1           0.5104
     38 F4          8.1679   -12.5732    96.9833 F          1          -0.1758
     39 F5          6.1592   -11.5557    96.5972 F          1          -0.1650
     40 F6          7.9508   -11.0920    95.2576 F          1          -0.1647
     41 C27         5.3069   -13.8026    91.3136 C.ar       1          -0.1037
     42 C28         4.7962   -15.0830    91.3514 C.ar       1          -0.0711
     43 H2          2.0240   -14.6404    89.4718 H          1           0.1433
     44 H3          2.9083   -12.3472    89.3965 H          1           0.1434
     45 H4          5.8725   -11.1081    91.3154 H          1           0.1425
     46 H5          4.0584   -10.9079    88.8531 H          1           0.1326
     47 H6          4.2676    -8.6617    87.9205 H          1           0.4025
     48 H7          6.1332    -6.8630    89.3779 H          1           0.0703
     49 H8          5.9576    -6.8463    87.6067 H          1           0.0705
     50 H9          4.6828    -4.9902    88.6448 H          1           0.0751
     51 H10         3.5906    -6.1479    87.8479 H          1           0.0745
     52 H11         2.7365    -5.5158    90.0884 H          1           0.0793
     53 H12         3.1600    -7.2437    90.0302 H          1           0.0801
     54 H13         5.3530    -6.7415    91.0727 H          1           0.0901
     55 H14         4.9294    -5.0135    91.1309 H          1           0.0887
     56 H15         2.9831    -5.5392    92.5746 H          1           0.1318
     57 H16         3.4067    -7.2671    92.5164 H          1           0.1361
     58 H17         5.0780    -7.8825    94.4862 H          1           0.1314
     59 H18         5.5499    -7.7650    92.7897 H          1           0.1389
     60 H19         7.4274    -7.8966    94.6202 H          1           0.1289
     61 H20         7.6136    -6.7159    93.2981 H          1           0.0904
     62 H21         7.9944    -5.8848    95.7498 H          1           0.1141
     63 H22         7.0260    -4.8881    94.6655 H          1           0.0897
     64 H23         4.1433    -4.9536    96.7563 H          1           0.1185
     65 H24         5.0140    -4.0676    95.4788 H          1           0.1120
     66 H25         3.1049    -5.1744    94.5645 H          1           0.1510
     67 H26         3.6328    -6.7162    95.2530 H          1           0.1306
     68 H27         7.8460    -5.8898    98.1441 H          1           0.4075
     69 H28         8.9579    -7.3901    99.8343 H          1           0.1534
     70 H29         9.8303    -9.6594   100.2155 H          1           0.1554
     71 H30         6.7757    -8.8067    96.4411 H          1           0.1499
     72 H31         6.2264   -13.5711    91.8304 H          1           0.1388
     73 H32         5.3171   -15.8548    91.8986 H          1           0.1415
@<TRIPOS>BOND
     1    1    2 1
     2    2    3 1
     3    2    4 1
     4    2    5 1
     5    5   42 ar
     6    5    6 ar
     7    6    7 ar
     8    6   43 1
     9    7    8 ar
    10    7   44 1
    11    8    9 1
    12    8   41 ar
    13    9   10 2
    14    9   45 1
    15   10   11 1
    16   10   46 1
    17   11   12 2
    18   11   13 am
    19   13   14 1
    20   13   47 1
    21   14   15 1
    22   14   48 1
    23   14   49 1
    24   15   16 1
    25   15   50 1
    26   15   51 1
    27   16   17 1
    28   16   52 1
    29   16   53 1
    30   17   18 1
    31   17   54 1
    32   17   55 1
    33   18   19 1
    34   18   56 1
    35   18   57 1
    36   19   20 1
    37   19   26 1
    38   19   21 1
    39   21   22 1
    40   21   58 1
    41   21   59 1
    42   22   23 1
    43   22   60 1
    44   22   61 1
    45   23   24 1
    46   23   62 1
    47   23   63 1
    48   24   25 1
    49   24   27 am
    50   25   26 1
    51   25   64 1
    52   25   65 1
    53   26   66 1
    54   26   67 1
    55   27   28 2
    56   27   29 am
    57   29   30 1
    58   29   68 1
    59   30   36 ar
    60   30   31 ar
    61   31   32 ar
    62   31   69 1
    63   32   33 ar
    64   32   70 1
    65   33   34 1
    66   33   35 ar
    67   35   36 ar
    68   35   37 1
    69   36   71 1
    70   37   38 1
    71   37   39 1
    72   37   40 1
    73   41   42 ar
    74   41   72 1
    75   42   73 1
##########                 Name:              T535085
##########          Protonation:                   99
##########               SMILES:   C[C@@H](Cc1ccc(cc1)C2=CC[NH2+]CC2)[NH2+]C[C@H](c3cccc(c3)C(F)(F)F)O
##########            Long Name:   S)-1-methyl-2-[4-(1,2,3,6-tetrahydropyridin-1-ium-4-yl)phenyl]ethyl]ammonium
##########          FlexRecCode: 1
##########               Number:                   98
##########   Ligand Source File: /raidb/db2/rgc/tcams/tcams-0001299.db2.gz
##########           GlobalRank: 379
##########                 Rank:                    1
##########               Setnum:                  122
##########             Matchnum:                 4427
##########                Cloud:                    1
##########        Electrostatic:           -49.023724
##########        Van der Waals:           -20.929440
##########  Ligand Polar Desolv:             8.749411
########## Ligand Apolar Desolv:            -3.207893
##########      Internal Energy:             0.000000
##########      Receptor Energy: 0.0
########## Receptor Desolvation:             0.000000
########## Receptor Hydrophobic:             0.000000
##########         Total Energy: -64.41
##########        Ligand Charge:             2.000000
##########            Arbitrary:    +999.9990
##########     heavy atom count:   29
##########           pose count:    1
##########        Ligand Energy:             0.000000
# num electro vdwattr vdwrepu polsolv apolsol rdesolv rhydroe totalscore fullpol fullapo
#   1    5.90   -2.45    1.87   -3.58   -0.10    0.00    0.00       1.65   -7.02   -0.19
#   2   -1.03   -0.92    0.12    1.20   -0.10    0.00    0.00      -0.73    2.98   -0.24
#   3    4.13   -1.70    0.56   -1.63   -0.10    0.00    0.00       1.27   -3.59   -0.21
#   4    3.06   -1.83    0.68   -1.04   -0.11    0.00    0.00       0.76   -3.05   -0.33
#   5    2.65   -1.09    0.18   -1.27   -0.11    0.00    0.00       0.35   -4.34   -0.38
#   6    1.04   -0.80    0.12   -0.86   -0.10    0.00    0.00      -0.61   -3.86   -0.45
#   7    0.40   -0.82    0.22   -0.41   -0.07    0.00    0.00      -0.68   -2.08   -0.36
#   8    1.17   -1.17    0.36   -1.01   -0.12    0.00    0.00      -0.77   -3.91   -0.45
#   9    3.01   -2.18    0.94   -1.35   -0.15    0.00    0.00       0.28   -4.10   -0.45
#  10    0.10   -0.42    0.03   -0.55   -0.05    0.00    0.00      -0.90   -3.68   -0.36
#  11    0.25   -0.21    0.00   -0.44   -0.04    0.00    0.00      -0.43   -5.25   -0.45
#  12   -0.04   -0.10    0.00    0.11   -0.03    0.00    0.00      -0.06    1.86   -0.48
#  13    0.62   -0.23    0.01   -2.41    0.11    0.00    0.00      -1.91  -20.18    0.92
#  14   -0.47    0.00    0.00    1.04    0.03    0.00    0.00       0.59   21.30    0.57
#  15   -0.64    0.00    0.00    1.39    0.04    0.00    0.00       0.79   19.65    0.56
#  16    0.00   -0.34    0.01    0.18   -0.11    0.00    0.00      -0.25    0.79   -0.47
#  17    0.15   -0.45    0.04   -1.00   -0.06    0.00    0.00      -1.32   -3.91   -0.24
#  18   21.03   -2.25    3.64   -7.39    0.23    0.00    0.00      15.26  -19.99    0.62
#  19  -16.44   -0.03    0.00    3.51    0.08    0.00    0.00     -12.88   18.68    0.42
#  20  -27.28   -0.24    0.20    7.14    0.19    0.00    0.00     -19.99   19.49    0.53
#  21    1.32   -0.82    0.11   -0.40   -0.13    0.00    0.00       0.09   -1.10   -0.36
#  22   -1.90   -0.57    0.05    1.51   -0.04    0.00    0.00      -0.95    5.29   -0.14
#  23    5.21   -0.71    0.12   -4.24    0.36    0.00    0.00       0.74  -19.30    1.64
#  24    1.13   -1.20    0.20   -0.92   -0.11    0.00    0.00      -0.91   -2.91   -0.35
#  25    0.59   -1.59    0.26   -0.63   -0.17    0.00    0.00      -1.53   -1.66   -0.44
#  26    0.73   -1.96    0.65   -1.23   -0.19    0.00    0.00      -2.00   -3.07   -0.47
#  27    0.32   -1.27    0.11   -0.88   -0.18    0.00    0.00      -1.90   -2.22   -0.44
#  28    0.95   -1.16    0.14   -1.27   -0.12    0.00    0.00      -1.46   -3.96   -0.37
#  29    0.29   -1.21    0.23   -0.41   -0.12    0.00    0.00      -1.22   -1.46   -0.44
#  30   -3.96   -0.67    0.06    2.14   -0.02    0.00    0.00      -2.45    6.81   -0.07
#  31    2.44   -1.01    0.33   -0.94   -0.18    0.00    0.00       0.64   -2.34   -0.44
#  32    0.85   -0.82    0.18   -0.81   -0.15    0.00    0.00      -0.75   -2.66   -0.48
#  33    1.26   -0.53    0.14   -0.63   -0.12    0.00    0.00       0.13   -2.62   -0.48
#  34   -2.19   -0.78    0.85    1.26   -0.07    0.00    0.00      -0.93    3.68   -0.21
#  35   -3.19   -0.95    0.67    1.80   -0.15    0.00    0.00      -1.82    3.31   -0.28
#  36   -3.30   -1.26    1.44    0.84   -0.12    0.00    0.00      -2.39    1.92   -0.28
#  37   -3.45   -0.14    0.00    0.75   -0.03    0.00    0.00      -2.87    6.19   -0.28
#  38   -4.30   -0.66    0.27    1.30   -0.13    0.00    0.00      -3.52    2.91   -0.28
#  39   -5.71   -1.28    1.54    2.24   -0.14    0.00    0.00      -3.34    4.38   -0.28
#  40   -2.95   -0.19    0.01    1.35   -0.06    0.00    0.00      -1.84    6.39   -0.28
#  41   -1.68   -0.13    0.01    0.50   -0.03    0.00    0.00      -1.33    4.08   -0.28
#  42   -1.11   -0.15    0.01    0.54   -0.05    0.00    0.00      -0.75    3.14   -0.28
#  43   -6.72   -1.06    1.65    1.16   -0.10    0.00    0.00      -5.06    3.37   -0.28
#  44   -0.33   -0.03    0.00    0.15   -0.01    0.00    0.00      -0.22    4.10   -0.28
#  45   -0.16   -0.03    0.00    0.21   -0.01    0.00    0.00       0.01    6.41   -0.28
#  46   -0.15   -0.02    0.00    0.20   -0.01    0.00    0.00       0.02    6.99   -0.28
#  47   -0.14   -0.10    0.00    0.46   -0.02    0.00    0.00       0.20    5.15   -0.28
#  48   -0.13   -0.16    0.01    1.30   -0.06    0.00    0.00       0.96    6.30   -0.28
#  49   -0.32   -0.14    0.01    0.67   -0.05    0.00    0.00       0.15    3.50   -0.28
#  50   -0.13   -0.27    0.08    0.49   -0.07    0.00    0.00       0.10    2.00   -0.28
#  51   -3.78   -0.44    0.24    1.89   -0.06    0.00    0.00      -2.16    6.97   -0.22
#  52   -3.78   -0.27    0.03    2.22   -0.09    0.00    0.00      -1.90    6.92   -0.28
#  53   -1.68   -0.18    0.01    1.10   -0.05    0.00    0.00      -0.80    6.13   -0.28
#  54   -6.01   -0.01    0.00    1.47    0.10    0.00    0.00      -4.45   14.84    1.01
#  55   -1.41   -0.34    0.05    1.97   -0.07    0.00    0.00       0.21    6.70   -0.24
#  56   -1.24   -0.75    1.07    0.93   -0.09    0.00    0.00      -0.08    2.86   -0.28
#  57   -1.16   -0.22    0.01    0.33   -0.07    0.00    0.00      -1.11    1.15   -0.25
#  58   -0.85   -0.16    0.02    0.72   -0.04    0.00    0.00      -0.32    5.03   -0.28

@<TRIPOS>MOLECULE
          T535085        99
   58    60     0     0     0



@<TRIPOS>ATOM
      1 C1          5.0418    -4.3364    95.9556 C.3        1          -0.1863
      2 C2          4.6100    -5.0053    94.6490 C.3        1           0.0306
      3 C3          3.9100    -3.9777    93.7573 C.3        1          -0.1060
      4 C4          3.0695    -4.6931    92.7311 C.ar       1          -0.1082
      5 C5          1.7514    -5.0026    93.0151 C.ar       1          -0.1369
      6 C6          0.9764    -5.6572    92.0799 C.ar       1          -0.0886
      7 C7          1.5248    -6.0067    90.8453 C.ar       1          -0.0615
      8 C8          2.8548    -5.6911    90.5650 C.ar       1          -0.0882
      9 C9          3.6176    -5.0319    91.5069 C.ar       1          -0.0996
     10 C10         0.7006    -6.7086    89.8389 C.2        1          -0.0608
     11 C11         1.0806    -7.8983    89.4258 C.2        1          -0.1773
     12 C12         0.3173    -8.6905    88.4039 C.3        1           0.0332
     13 N1         -1.0537    -8.1815    88.2816 N.4        1          -0.5091
     14 H1         -1.5154    -8.6373    87.5088 H          1           0.4399
     15 H2         -1.5601    -8.3669    89.1344 H          1           0.4320
     16 C13        -1.0061    -6.7307    88.0404 C.3        1          -0.0044
     17 C14        -0.5461    -6.0395    89.3284 C.3        1          -0.1161
     18 N2          5.7925    -5.5318    93.9544 N.4        1          -0.5062
     19 H3          5.5077    -5.9728    93.0928 H          1           0.4227
     20 H4          6.4279    -4.7749    93.7508 H          1           0.4308
     21 C15         6.4645    -6.5183    94.8106 C.3        1          -0.0491
     22 C16         5.5011    -7.6661    95.1192 C.3        1           0.1390
     23 O1          4.7479    -7.9839    93.9473 O.3        1          -0.5439
     24 C17         6.2854    -8.8766    95.5560 C.ar       1          -0.1455
     25 C18         6.5748    -9.0668    96.8945 C.ar       1          -0.0751
     26 C19         7.2940   -10.1770    97.2951 C.ar       1          -0.1056
     27 C20         7.7237   -11.0976    96.3573 C.ar       1          -0.0500
     28 C21         7.4336   -10.9079    95.0193 C.ar       1          -0.1724
     29 C22         6.7104    -9.7995    94.6191 C.ar       1          -0.0526
     30 C23         7.9023   -11.9112    93.9972 C.3        1           0.5066
     31 F1          8.6038   -12.9376    94.6386 F          1          -0.1684
     32 F2          6.7963   -12.4484    93.3298 F          1          -0.1758
     33 F3          8.7420   -11.2787    93.0740 F          1          -0.1725
     34 H5          5.5404    -5.0684    96.5910 H          1           0.0847
     35 H6          5.7280    -3.5187    95.7357 H          1           0.0868
     36 H7          4.1644    -3.9458    96.4711 H          1           0.1111
     37 H8          3.9237    -5.8231    94.8690 H          1           0.1412
     38 H9          3.2719    -3.3403    94.3692 H          1           0.1264
     39 H10         4.6574    -3.3659    93.2521 H          1           0.1034
     40 H11         1.3282    -4.7317    93.9711 H          1           0.1302
     41 H12        -0.0522    -5.8991    92.3031 H          1           0.1346
     42 H13         3.2849    -5.9587    89.6111 H          1           0.1333
     43 H14         4.6460    -4.7838    91.2897 H          1           0.1375
     44 H15         1.9826    -8.3241    89.8400 H          1           0.1493
     45 H16         0.8184    -8.6122    87.4391 H          1           0.1444
     46 H17         0.2876    -9.7370    88.7077 H          1           0.1462
     47 H18        -0.3037    -6.5165    87.2350 H          1           0.1367
     48 H19        -1.9990    -6.3721    87.7686 H          1           0.1440
     49 H20        -1.3303    -6.1097    90.0820 H          1           0.1095
     50 H21        -0.3358    -4.9905    89.1201 H          1           0.1257
     51 H22         7.3418    -6.9090    94.2952 H          1           0.1434
     52 H23         6.7721    -6.0418    95.7415 H          1           0.1452
     53 H24         4.8221    -7.3658    95.9173 H          1           0.1300
     54 H25         4.2175    -7.2492    93.6092 H          1           0.3916
     55 H26         6.2392    -8.3477    97.6270 H          1           0.1345
     56 H27         7.5206   -10.3251    98.3405 H          1           0.1483
     57 H28         8.2863   -11.9647    96.6702 H          1           0.1506
     58 H29         6.4805    -9.6533    93.5740 H          1           0.1367
@<TRIPOS>BOND
     1    1    2 1
     2    1   34 1
     3    1   35 1
     4    1   36 1
     5    2    3 1
     6    2   18 1
     7    2   37 1
     8    3    4 1
     9    3   38 1
    10    3   39 1
    11    4    9 ar
    12    4    5 ar
    13    5    6 ar
    14    5   40 1
    15    6    7 ar
    16    6   41 1
    17    7    8 ar
    18    7   10 1
    19    8    9 ar
    20    8   42 1
    21    9   43 1
    22   10   17 1
    23   10   11 2
    24   11   12 1
    25   11   44 1
    26   12   13 1
    27   12   45 1
    28   12   46 1
    29   13   14 1
    30   13   15 1
    31   13   16 1
    32   16   17 1
    33   16   47 1
    34   16   48 1
    35   17   49 1
    36   17   50 1
    37   18   19 1
    38   18   20 1
    39   18   21 1
    40   21   22 1
    41   21   51 1
    42   21   52 1
    43   22   23 1
    44   22   24 1
    45   22   53 1
    46   23   54 1
    47   24   29 ar
    48   24   25 ar
    49   25   26 ar
    50   25   55 1
    51   26   27 ar
    52   26   56 1
    53   27   28 ar
    54   27   57 1
    55   28   29 ar
    56   28   30 1
    57   29   58 1
    58   30   31 1
    59   30   32 1
    60   30   33 1
##########                 Name:              T540741
##########          Protonation:                   37
##########               SMILES:   CC(C)N1CC[NH+](CC1)CCCNc2c3ccccc3[nH+]c4c2cccc4
##########            Long Name:   N-[3-(4-isopropylpiperazin-1-ium-1-yl)propyl]acridin-10-ium-9-amine
##########          FlexRecCode: 1
##########               Number:                  251
##########   Ligand Source File: /raidb/db2/rgc/tcams/tcams-0002028.db2.gz
##########           GlobalRank: 380
##########                 Rank:                    1
##########               Setnum:                   13
##########             Matchnum:                 5459
##########                Cloud:                    1
##########        Electrostatic:           -41.198547
##########        Van der Waals:           -29.041708
##########  Ligand Polar Desolv:             9.594257
########## Ligand Apolar Desolv:            -3.753411
##########      Internal Energy:             0.000000
##########      Receptor Energy: 0.0
########## Receptor Desolvation:             0.000000
########## Receptor Hydrophobic:             0.000000
##########         Total Energy: -64.4
##########        Ligand Charge:             2.000000
##########            Arbitrary:    +999.9990
##########     heavy atom count:   27
##########           pose count:    1
##########        Ligand Energy:             0.000000
# num electro vdwattr vdwrepu polsolv apolsol rdesolv rhydroe totalscore fullpol fullapo
#   1    3.23   -0.84    0.06   -1.41   -0.08    0.00    0.00       0.96   -3.22   -0.19
#   2   -1.54   -0.56    0.02    0.73   -0.09    0.00    0.00      -1.44    2.25   -0.29
#   3    4.21   -0.96    0.16   -1.80   -0.06    0.00    0.00       1.54   -4.63   -0.16
#   4    4.06   -1.18    0.47   -4.05    0.75    0.00    0.00       0.05  -16.72    3.10
#   5   -0.20   -0.49    0.05   -0.01   -0.08    0.00    0.00      -0.72   -0.05   -0.33
#   6    0.09   -0.53    0.08    0.20   -0.09    0.00    0.00      -0.25    0.90   -0.42
#   7    6.19   -0.38    0.02   -2.69    0.08    0.00    0.00       3.22  -15.06    0.43
#   8   -4.08    0.00    0.00    1.35    0.03    0.00    0.00      -2.70   22.15    0.56
#   9    0.40   -0.53    0.05   -0.18   -0.07    0.00    0.00      -0.31   -0.74   -0.29
#  10    3.14   -0.40    0.03   -1.53   -0.04    0.00    0.00       1.19   -7.39   -0.21
#  11   -1.26   -0.88    0.22    1.39   -0.14    0.00    0.00      -0.67    4.98   -0.49
#  12    6.28   -0.76    0.08   -6.49    0.23    0.00    0.00      -0.66  -29.37    1.06
#  13   -5.72   -1.38    0.39    4.79   -0.20    0.00    0.00      -2.13   14.74   -0.63
#  14    1.51   -2.46    1.36   -2.04   -0.16    0.00    0.00      -1.80   -4.95   -0.40
#  15    0.20   -2.86    1.84   -0.31   -0.19    0.00    0.00      -1.33   -0.73   -0.45
#  16    0.50   -3.29    1.53   -2.39   -0.25    0.00    0.00      -3.90   -4.56   -0.47
#  17   -0.01   -3.09    1.20   -0.81   -0.31    0.00    0.00      -3.01   -1.25   -0.47
#  18    2.96   -3.16    1.90   -3.35   -0.30    0.00    0.00      -1.96   -5.11   -0.46
#  19   -6.32   -2.93    1.49    2.86   -0.36    0.00    0.00      -5.26    5.83   -0.73
#  20   18.44   -3.08    1.22   -7.30    0.48    0.00    0.00       9.76  -14.68    0.96
#  21  -18.61   -0.10    0.01    7.09    0.29    0.00    0.00     -11.32   13.98    0.57
#  22   -7.38   -1.96    0.41    2.68   -0.32    0.00    0.00      -6.57    6.11   -0.73
#  23    5.25   -2.67    1.07   -2.66   -0.21    0.00    0.00       0.79   -5.93   -0.46
#  24    0.16   -1.94    0.88   -0.42   -0.18    0.00    0.00      -1.49   -1.07   -0.47
#  25    2.58   -1.32    0.42   -1.42   -0.14    0.00    0.00       0.14   -4.77   -0.47
#  26    1.42   -0.96    0.16   -0.20   -0.11    0.00    0.00       0.30   -0.78   -0.44
#  27    3.65   -1.23    0.17   -1.71   -0.14    0.00    0.00       0.74   -5.00   -0.40
#  28    0.10   -0.30    0.01    0.06   -0.07    0.00    0.00      -0.20    0.34   -0.41
#  29   -0.11   -0.75    0.29    0.06   -0.08    0.00    0.00      -0.60    0.25   -0.37
#  30   -1.30   -0.19    0.01    0.31   -0.04    0.00    0.00      -1.21    1.51   -0.21
#  31   -1.20   -0.37    0.07    0.06   -0.10    0.00    0.00      -1.53    0.18   -0.28
#  32   -1.86   -0.37    0.04    0.23   -0.12    0.00    0.00      -2.07    0.55   -0.28
#  33   -2.52   -0.15    0.00    0.16   -0.04    0.00    0.00      -2.54    1.25   -0.28
#  34   -1.50   -0.21    0.01    0.42   -0.04    0.00    0.00      -1.32    2.04   -0.21
#  35   -1.35   -0.74    0.54    0.98   -0.07    0.00    0.00      -0.65    2.88   -0.22
#  36   -1.27   -0.27    0.03    0.03   -0.09    0.00    0.00      -1.58    0.10   -0.28
#  37   -1.09   -0.14    0.01    0.40   -0.02    0.00    0.00      -0.84    2.99   -0.16
#  38   -0.69   -0.20    0.04    0.25   -0.03    0.00    0.00      -0.62    1.69   -0.22
#  39   -5.03   -0.29    0.12    1.29   -0.05    0.00    0.00      -3.96    7.21   -0.28
#  40   -4.21   -0.20    0.05    0.75   -0.04    0.00    0.00      -3.65    4.80   -0.28
#  41   -1.41   -0.12    0.01    0.60   -0.02    0.00    0.00      -0.93    4.60   -0.15
#  42   -4.76   -0.41    0.15    2.08   -0.08    0.00    0.00      -3.03    7.48   -0.28
#  43   -2.53   -0.15    0.02    0.83   -0.04    0.00    0.00      -1.87    6.24   -0.28
#  44   -0.87   -0.04    0.00    0.20   -0.01    0.00    0.00      -0.71    4.78   -0.14
#  45   -0.27   -0.23    0.04    0.58   -0.05    0.00    0.00       0.07    2.92   -0.27
#  46   -3.09   -0.89    1.19    1.50   -0.10    0.00    0.00      -1.40    4.16   -0.28
#  47   -2.24   -0.01    0.00    1.08    0.04    0.00    0.00      -1.13   16.58    0.59
#  48   -0.49   -0.47    0.29    1.61   -0.07    0.00    0.00       0.86    6.21   -0.27
#  49   -0.50   -0.94    0.84    2.00   -0.15    0.00    0.00       1.24    3.74   -0.28
#  50   -1.67   -0.82    0.83    2.19   -0.17    0.00    0.00       0.35    3.51   -0.28
#  51   -2.14   -0.53    0.11    2.94   -0.18    0.00    0.00       0.20    4.66   -0.28
#  52   -6.33   -1.24    1.82    2.31   -0.14    0.00    0.00      -3.58    4.63   -0.28
#  53   -2.60   -0.37    0.08    1.61   -0.10    0.00    0.00      -1.38    4.33   -0.28
#  54   -2.77   -0.24    0.04    1.40   -0.06    0.00    0.00      -1.63    6.38   -0.28
#  55   -3.09   -0.10    0.01    1.00   -0.02    0.00    0.00      -2.21    8.82   -0.18
#  56   -2.49   -0.11    0.00    0.88   -0.02    0.00    0.00      -1.74    9.00   -0.22
#  57   -1.16   -0.07    0.00    0.31   -0.02    0.00    0.00      -0.93    5.11   -0.28
#  58    0.59   -0.53    0.56    0.58   -0.06    0.00    0.00       1.13    2.75   -0.28
#  59   -0.50   -0.19    0.03    0.57   -0.03    0.00    0.00      -0.12    3.40   -0.16

@<TRIPOS>MOLECULE
          T540741        37
   59    62     0     0     0



@<TRIPOS>ATOM
      1 C1          2.4104    -6.2699    96.2422 C.3        1          -0.1539
      2 C2          3.6810    -6.3150    95.3912 C.3        1           0.0783
      3 C3          4.8978    -6.0383    96.2765 C.3        1          -0.1931
      4 N1          3.8132    -7.6437    94.7786 N.3        1          -0.5285
      5 C4          5.0670    -7.7513    94.0197 C.3        1           0.0150
      6 C5          5.0295    -6.7755    92.8417 C.3        1          -0.0035
      7 N2          3.8861    -7.0953    91.9768 N.4        1          -0.3821
      8 H1          3.9761    -8.0411    91.6369 H          1           0.4294
      9 C6          3.8590    -6.1670    90.8387 C.3        1          -0.0201
     10 C7          4.8694    -6.6233    89.7842 C.3        1          -0.1802
     11 C8          4.8412    -5.6565    88.5988 C.3        1           0.1412
     12 N3          5.8088    -6.0933    87.5892 N.pl3      1          -0.7935
     13 C9          6.8436    -5.2609    87.2208 C.ar       1           0.3888
     14 C10         6.6978    -4.3422    86.1626 C.ar       1          -0.1325
     15 C11         5.4900    -4.2473    85.4502 C.ar       1          -0.0471
     16 C12         5.3764    -3.3510    84.4330 C.ar       1          -0.1152
     17 C13         6.4445    -2.5235    84.0862 C.ar       1           0.0013
     18 C14         7.6275    -2.5867    84.7522 C.ar       1          -0.1714
     19 C15         7.7872    -3.5015    85.8133 C.ar       1           0.2191
     20 N4          8.9414    -3.5733    86.4741 N.ar       1          -0.4940
     21 H2          9.6700    -2.9876    86.2146 H          1           0.4458
     22 C16         9.1243    -4.4258    87.4809 C.ar       1           0.2191
     23 C17        10.3593    -4.4751    88.1595 C.ar       1          -0.1648
     24 C18        10.5329    -5.3493    89.1857 C.ar       1          -0.0073
     25 C19         9.5067    -6.2056    89.5849 C.ar       1          -0.1180
     26 C20         8.3002    -6.1894    88.9561 C.ar       1          -0.0594
     27 C21         8.0810    -5.2960    87.8935 C.ar       1          -0.1356
     28 C22         2.6388    -6.9673    92.7419 C.3        1          -0.0080
     29 C23         2.6597    -7.9445    93.9193 C.3        1           0.0230
     30 H3          1.5434    -6.4671    95.6115 H          1           0.0580
     31 H4          2.4701    -7.0266    97.0245 H          1           0.0739
     32 H5          2.3123    -5.2841    96.6968 H          1           0.0724
     33 H6          3.6213    -5.5585    94.6087 H          1           0.0982
     34 H7          5.8032    -6.0703    95.6702 H          1           0.0602
     35 H8          4.7997    -5.0525    96.7310 H          1           0.0519
     36 H9          4.9575    -6.7948    97.0589 H          1           0.0790
     37 H10         5.9076    -7.5062    94.6689 H          1           0.0629
     38 H11         5.1801    -8.7689    93.6460 H          1           0.1287
     39 H12         4.9278    -5.7571    93.2166 H          1           0.1383
     40 H13         5.9531    -6.8613    92.2693 H          1           0.1435
     41 H14         2.8598    -6.1552    90.4031 H          1           0.1300
     42 H15         4.1182    -5.1651    91.1807 H          1           0.1385
     43 H16         5.8686    -6.6351    90.2197 H          1           0.1015
     44 H17         4.6103    -7.6251    89.4422 H          1           0.0902
     45 H18         3.8420    -5.6445    88.1633 H          1           0.0852
     46 H19         5.1004    -4.6546    88.9409 H          1           0.0942
     47 H20         5.7210    -6.9684    87.1800 H          1           0.4270
     48 H21         4.6561    -4.8830    85.7088 H          1           0.1562
     49 H22         4.4474    -3.2794    83.8868 H          1           0.1565
     50 H23         6.3294    -1.8205    83.2743 H          1           0.1614
     51 H24         8.4435    -1.9382    84.4693 H          1           0.1618
     52 H25        11.1656    -3.8200    87.8644 H          1           0.1617
     53 H26        11.4817    -5.3817    89.7006 H          1           0.1600
     54 H27         9.6720    -6.8906    90.4033 H          1           0.1521
     55 H28         7.5135    -6.8572    89.2744 H          1           0.1497
     56 H29         2.5457    -5.9483    93.1172 H          1           0.1303
     57 H30         1.7911    -7.1953    92.0956 H          1           0.1439
     58 H31         2.7413    -8.9647    93.5443 H          1           0.1217
     59 H32         1.7400    -7.8405    94.4950 H          1           0.0585
@<TRIPOS>BOND
     1    1    2 1
     2    1   30 1
     3    1   31 1
     4    1   32 1
     5    2    3 1
     6    2    4 1
     7    2   33 1
     8    3   34 1
     9    3   35 1
    10    3   36 1
    11    4   29 1
    12    4    5 1
    13    5    6 1
    14    5   37 1
    15    5   38 1
    16    6    7 1
    17    6   39 1
    18    6   40 1
    19    7    8 1
    20    7    9 1
    21    7   28 1
    22    9   10 1
    23    9   41 1
    24    9   42 1
    25   10   11 1
    26   10   43 1
    27   10   44 1
    28   11   12 1
    29   11   45 1
    30   11   46 1
    31   12   13 1
    32   12   47 1
    33   13   27 ar
    34   13   14 ar
    35   14   19 ar
    36   14   15 ar
    37   15   16 ar
    38   15   48 1
    39   16   17 ar
    40   16   49 1
    41   17   18 ar
    42   17   50 1
    43   18   19 ar
    44   18   51 1
    45   19   20 ar
    46   20   21 1
    47   20   22 ar
    48   22   27 ar
    49   22   23 ar
    50   23   24 ar
    51   23   52 1
    52   24   25 ar
    53   24   53 1
    54   25   26 ar
    55   25   54 1
    56   26   27 ar
    57   26   55 1
    58   28   29 1
    59   28   56 1
    60   28   57 1
    61   29   58 1
    62   29   59 1
##########                 Name:              T535436
##########          Protonation:                   94
##########               SMILES:   c1cc(ccc1/C=C/C(=O)NCCCCC[NH+]2CCCN(CC2)C(=O)Nc3ccc(c(c3)Cl)F)C(F)(F)F
##########            Long Name:   oromethyl)phenyl]prop-2-enoyl]amino]pentyl]-1,4-diazepan-4-ium-1-carboxamide
##########          FlexRecCode: 1
##########               Number:                  105
##########   Ligand Source File: /raidb/db2/rgc/tcams/tcams-0001350.db2.gz
##########           GlobalRank: 381
##########                 Rank:                    1
##########               Setnum:                  255
##########             Matchnum:                 3661
##########                Cloud:                    1
##########        Electrostatic:           -40.144577
##########        Van der Waals:           -29.449636
##########  Ligand Polar Desolv:             9.649895
########## Ligand Apolar Desolv:            -4.448631
##########      Internal Energy:             0.000000
##########      Receptor Energy: 0.0
########## Receptor Desolvation:             0.000000
########## Receptor Hydrophobic:             0.000000
##########         Total Energy: -64.39
##########        Ligand Charge:             1.000000
##########            Arbitrary:    +999.9990
##########     heavy atom count:   38
##########           pose count:    1
##########        Ligand Energy:             0.000000
# num electro vdwattr vdwrepu polsolv apolsol rdesolv rhydroe totalscore fullpol fullapo
#   1    0.73   -1.91    1.53   -0.22   -0.28    0.00    0.00      -0.15   -0.36   -0.47
#   2   -0.94   -2.05    0.61   -0.01   -0.19    0.00    0.00      -2.58   -0.02   -0.34
#   3    1.57   -2.10    0.78   -0.59   -0.24    0.00    0.00      -0.58   -1.13   -0.47
#   4    1.26   -1.63    0.31   -0.55   -0.21    0.00    0.00      -0.82   -1.17   -0.46
#   5   -1.00   -1.44    0.19    0.85   -0.25    0.00    0.00      -1.65    2.30   -0.68
#   6    3.74   -1.39    0.26   -3.86    0.56    0.00    0.00      -0.70  -11.45    1.67
#   7   -5.94   -1.33    0.23    3.98   -0.70    0.00    0.00      -3.76   11.44   -2.02
#   8    4.50   -2.00    0.49   -3.04    0.14    0.00    0.00       0.09   -6.90    0.32
#   9    9.82   -0.83    0.05   -4.15    0.42    0.00    0.00       5.31  -14.08    1.44
#  10   -2.07   -0.68    0.04    0.71   -0.16    0.00    0.00      -2.15    2.08   -0.46
#  11    5.27   -1.13    0.16   -2.03   -0.11    0.00    0.00       2.17   -4.53   -0.24
#  12    0.45   -1.19    0.31   -0.15   -0.14    0.00    0.00      -0.73   -0.37   -0.36
#  13   14.48   -1.91    1.93   -3.39    0.05    0.00    0.00      11.17  -11.43    0.18
#  14  -24.67   -0.18    0.10    4.94    0.13    0.00    0.00     -19.68   17.09    0.45
#  15    0.69   -1.45    0.67   -0.03   -0.11    0.00    0.00      -0.23   -0.10   -0.34
#  16    4.51   -1.26    0.56   -1.23   -0.06    0.00    0.00       2.52   -4.12   -0.20
#  17    1.11   -1.14    0.31   -0.94   -0.07    0.00    0.00      -0.74   -2.99   -0.22
#  18    0.53   -0.75    0.18   -0.61   -0.06    0.00    0.00      -0.71   -2.40   -0.22
#  19   -0.75   -0.20    0.00    0.17   -0.05    0.00    0.00      -0.82    1.40   -0.43
#  20    2.15   -0.17    0.00   -0.67    0.17    0.00    0.00       1.48   -9.24    2.33
#  21   -1.54   -0.13    0.00    0.25   -0.04    0.00    0.00      -1.46    4.22   -0.65
#  22    2.62   -0.15    0.00   -0.10    0.03    0.00    0.00       2.40   -1.30    0.39
#  23    0.19   -0.12    0.00   -0.11   -0.02    0.00    0.00      -0.07   -1.89   -0.43
#  24    0.01   -0.24    0.01   -0.05   -0.05    0.00    0.00      -0.31   -0.44   -0.44
#  25    0.04   -0.27    0.01   -0.04   -0.05    0.00    0.00      -0.30   -0.36   -0.41
#  26    0.08   -0.14    0.00   -0.06   -0.03    0.00    0.00      -0.15   -0.96   -0.44
#  27    0.06   -0.16    0.00   -0.04   -0.03    0.00    0.00      -0.17   -0.65   -0.44
#  28    0.16   -0.35    0.03   -0.15   -0.05    0.00    0.00      -0.36   -1.06   -0.38
#  29    0.09   -0.81    0.21   -0.12   -0.10    0.00    0.00      -0.73   -0.52   -0.44
#  30    0.11   -0.64    0.11   -0.17   -0.10    0.00    0.00      -0.68   -0.78   -0.45
#  31   -0.43   -0.24    0.01    0.23   -0.01    0.00    0.00      -0.43    1.53   -0.07
#  32    0.12   -0.11    0.00   -0.03   -0.04    0.00    0.00      -0.06   -0.37   -0.48
#  33    0.13   -0.41    0.05   -0.09   -0.11    0.00    0.00      -0.44   -0.36   -0.45
#  34    0.19   -0.22    0.01   -0.10   -0.08    0.00    0.00      -0.19   -0.55   -0.45
#  35    1.03   -0.42    0.03   -0.08   -0.08    0.00    0.00       0.48   -0.37   -0.39
#  36   -2.23   -0.49    0.03    0.59   -0.11    0.00    0.00      -2.20    2.35   -0.42
#  37    0.44   -1.54    0.20   -0.36   -0.16    0.00    0.00      -1.42   -0.86   -0.39
#  38    0.42   -1.64    0.20   -0.27   -0.17    0.00    0.00      -1.45   -0.48   -0.30
#  39    0.33   -5.68    2.77   -0.22   -0.58    0.00    0.00      -3.38   -0.36   -0.97
#  40   -2.92   -0.50    0.12    0.96   -0.13    0.00    0.00      -2.47    2.05   -0.28
#  41   -2.13   -0.27    0.02    1.21   -0.08    0.00    0.00      -1.26    3.98   -0.28
#  42   -1.58   -0.02    0.00    1.90    0.08    0.00    0.00       0.38    9.88    0.41
#  43   -1.77   -0.15    0.00    0.34   -0.03    0.00    0.00      -1.60    2.57   -0.20
#  44   -1.94   -0.32    0.05    0.68   -0.08    0.00    0.00      -1.62    2.23   -0.28
#  45   -4.15   -0.64    0.24    2.03   -0.12    0.00    0.00      -2.65    4.58   -0.28
#  46   -3.76   -0.41    0.11    1.89   -0.10    0.00    0.00      -2.27    4.85   -0.25
#  47   -3.58   -0.19    0.01    0.62   -0.05    0.00    0.00      -3.20    3.00   -0.24
#  48   -6.34   -0.72    0.33    2.79   -0.09    0.00    0.00      -4.03    6.18   -0.21
#  49   -2.62   -0.17    0.02    0.80   -0.04    0.00    0.00      -2.01    4.88   -0.27
#  50   -5.60   -1.17    1.50    1.63   -0.11    0.00    0.00      -3.76    3.94   -0.27
#  51   -4.20   -1.17    2.00    1.23   -0.07    0.00    0.00      -2.21    3.85   -0.21
#  52   -1.91   -0.11    0.01    0.42   -0.03    0.00    0.00      -1.62    3.93   -0.28
#  53   -0.27   -0.16    0.02    0.24   -0.05    0.00    0.00      -0.23    1.37   -0.28
#  54   -1.45   -1.02    0.95    0.56   -0.12    0.00    0.00      -1.08    1.31   -0.28
#  55   -0.23   -0.27    0.08    0.40   -0.05    0.00    0.00      -0.07    2.21   -0.28
#  56   -0.80   -0.34    0.15    0.46   -0.06    0.00    0.00      -0.59    2.15   -0.28
#  57   -0.34   -0.05    0.00    0.02   -0.01    0.00    0.00      -0.39    0.30   -0.28
#  58   -0.81   -0.05    0.00    0.02   -0.01    0.00    0.00      -0.86    0.32   -0.28
#  59   -0.71    0.00    0.00    0.29    0.02    0.00    0.00      -0.41    7.82    0.56
#  60   -0.12   -0.01    0.00    0.08   -0.01    0.00    0.00      -0.07    3.19   -0.21
#  61   -0.09   -0.07    0.01    0.05   -0.02    0.00    0.00      -0.13    0.59   -0.26
#  62   -0.10   -0.01    0.00    0.06    0.00    0.00    0.00      -0.05    3.02   -0.21
#  63   -0.09   -0.02    0.00    0.03   -0.01    0.00    0.00      -0.08    1.60   -0.27
#  64   -0.21   -0.27    0.07    0.21   -0.07    0.00    0.00      -0.27    0.81   -0.27
#  65   -0.21   -0.15    0.02    0.24   -0.05    0.00    0.00      -0.16    1.31   -0.28
#  66   -1.95   -0.10    0.00    0.22   -0.02    0.00    0.00      -1.85    2.48   -0.28
#  67   -2.51   -0.08    0.00    0.43   -0.02    0.00    0.00      -2.17    5.94   -0.26
#  68   -2.96   -0.25    0.05    1.11   -0.06    0.00    0.00      -2.11    5.06   -0.28
#  69   -1.54   -0.13    0.01    0.12   -0.03    0.00    0.00      -1.57    1.03   -0.24
#  70   -0.51   -0.35    0.06    0.33   -0.07    0.00    0.00      -0.54    1.09   -0.22

@<TRIPOS>MOLECULE
          T535436        94
   70    72     0     0     0



@<TRIPOS>ATOM
      1 F1          9.7621   -11.9280    99.3250 F          1          -0.1195
      2 C1          8.9366   -11.3039    98.4566 C.ar       1           0.1049
      3 C2          8.6882    -9.9485    98.5910 C.ar       1          -0.1180
      4 C3          7.8444    -9.3085    97.7046 C.ar       1          -0.1071
      5 C4          7.2445   -10.0249    96.6773 C.ar       1           0.1484
      6 N1          6.3890    -9.3771    95.7774 N.am       1          -0.6762
      7 C5          5.6703    -8.3102    96.1798 C.2        1           0.7011
      8 O1          5.3156    -8.2183    97.3391 O.2        1          -0.5488
      9 N2          5.3451    -7.3451    95.2969 N.am       1          -0.6359
     10 C6          4.5595    -6.1556    95.7143 C.3        1           0.0947
     11 C7          4.8963    -4.8001    95.1397 C.3        1          -0.1568
     12 C8          4.1559    -4.6344    93.7965 C.3        1          -0.0119
     13 N3          4.7039    -5.4493    92.7748 N.4        1          -0.3661
     14 H1          5.6726    -5.1960    92.6498 H          1           0.4172
     15 C9          3.9883    -5.1684    91.5229 C.3        1          -0.0205
     16 C10         4.8387    -5.6247    90.3359 C.3        1          -0.1464
     17 C11         4.0935    -5.3321    89.0321 C.3        1          -0.1157
     18 C12         4.9439    -5.7885    87.8450 C.3        1          -0.1322
     19 C13         5.2083    -7.2914    87.9550 C.3        1           0.1172
     20 N4          3.9336    -8.0133    87.9487 N.am       1          -0.7312
     21 C14         3.5911    -8.7854    88.9989 C.2        1           0.5486
     22 O2          4.3408    -8.8831    89.9525 O.2        1          -0.5370
     23 C15         2.3168    -9.5069    88.9926 C.2        1          -0.2114
     24 C16         1.6812    -9.7623    90.1536 C.2        1          -0.0142
     25 C17         0.4002   -10.4877    90.1472 C.ar       1          -0.0490
     26 C18         0.0394   -11.2673    89.0439 C.ar       1          -0.1038
     27 C19        -1.1621   -11.9438    89.0453 C.ar       1          -0.0711
     28 C20        -2.0102   -11.8525    90.1353 C.ar       1          -0.1698
     29 C21        -1.6603   -11.0829    91.2312 C.ar       1          -0.0697
     30 C22        -0.4595   -10.4052    91.2471 C.ar       1          -0.0932
     31 C23        -3.3219   -12.5946    90.1286 C.3        1           0.5064
     32 F2         -3.4542   -13.2968    88.9258 F          1          -0.1736
     33 F3         -3.3543   -13.4940    91.1997 F          1          -0.1741
     34 F4         -4.3747   -11.6819    90.2541 F          1          -0.1753
     35 C24         4.6312    -6.8901    93.0339 C.3        1          -0.0472
     36 C25         5.7653    -7.4319    93.8752 C.3        1           0.1146
     37 C26         7.4944   -11.3838    96.5430 C.ar       1          -0.0852
     38 C27         8.3439   -12.0199    97.4289 C.ar       1          -0.0574
     39 Cl1         8.6628   -13.7177    97.2579 Cl         1          -0.0337
     40 H2          9.1547    -9.3911    99.3899 H          1           0.1556
     41 H3          7.6506    -8.2513    97.8106 H          1           0.1445
     42 H4          6.3137    -9.6961    94.8645 H          1           0.4105
     43 H5          3.5139    -6.3576    95.4817 H          1           0.0927
     44 H6          4.6370    -6.0781    96.7988 H          1           0.0949
     45 H7          4.5786    -4.0200    95.8314 H          1           0.1280
     46 H8          5.9716    -4.7286    94.9761 H          1           0.0946
     47 H9          3.1080    -4.9001    93.9359 H          1           0.1287
     48 H10         4.2164    -3.5912    93.4865 H          1           0.1392
     49 H11         3.0398    -5.7056    91.5183 H          1           0.1349
     50 H12         3.7997    -4.0977    91.4446 H          1           0.1315
     51 H13         5.7871    -5.0875    90.3406 H          1           0.0874
     52 H14         5.0272    -6.6954    90.4142 H          1           0.0894
     53 H15         3.1450    -5.8692    89.0274 H          1           0.0801
     54 H16         3.9050    -4.2613    88.9537 H          1           0.0790
     55 H17         4.4130    -5.5800    86.9162 H          1           0.0742
     56 H18         5.8924    -5.2514    87.8497 H          1           0.0750
     57 H19         5.8143    -7.6167    87.1093 H          1           0.0706
     58 H20         5.7392    -7.4999    88.8838 H          1           0.0703
     59 H21         3.3358    -7.9355    87.1886 H          1           0.4025
     60 H22         1.8863    -9.8344    88.0578 H          1           0.1326
     61 H23         2.1116    -9.4348    91.0884 H          1           0.1426
     62 H24         0.7001   -11.3390    88.1924 H          1           0.1388
     63 H25        -1.4424   -12.5459    88.1938 H          1           0.1414
     64 H26        -2.3275   -11.0165    92.0777 H          1           0.1433
     65 H27        -0.1858    -9.8088    92.1048 H          1           0.1434
     66 H28         3.6901    -7.1023    93.5411 H          1           0.1315
     67 H29         4.6290    -7.4131    92.0776 H          1           0.1469
     68 H30         6.6643    -6.8361    93.7180 H          1           0.1028
     69 H31         5.9593    -8.4710    93.6095 H          1           0.1343
     70 H32         7.0289   -11.9425    95.7446 H          1           0.1573
@<TRIPOS>BOND
     1    1    2 1
     2    2   38 ar
     3    2    3 ar
     4    3    4 ar
     5    3   40 1
     6    4    5 ar
     7    4   41 1
     8    5    6 1
     9    5   37 ar
    10    6    7 am
    11    6   42 1
    12    7    8 2
    13    7    9 am
    14    9   36 1
    15    9   10 1
    16   10   11 1
    17   10   43 1
    18   10   44 1
    19   11   12 1
    20   11   45 1
    21   11   46 1
    22   12   13 1
    23   12   47 1
    24   12   48 1
    25   13   14 1
    26   13   15 1
    27   13   35 1
    28   15   16 1
    29   15   49 1
    30   15   50 1
    31   16   17 1
    32   16   51 1
    33   16   52 1
    34   17   18 1
    35   17   53 1
    36   17   54 1
    37   18   19 1
    38   18   55 1
    39   18   56 1
    40   19   20 1
    41   19   57 1
    42   19   58 1
    43   20   21 am
    44   20   59 1
    45   21   22 2
    46   21   23 1
    47   23   24 2
    48   23   60 1
    49   24   25 1
    50   24   61 1
    51   25   30 ar
    52   25   26 ar
    53   26   27 ar
    54   26   62 1
    55   27   28 ar
    56   27   63 1
    57   28   29 ar
    58   28   31 1
    59   29   30 ar
    60   29   64 1
    61   30   65 1
    62   31   32 1
    63   31   33 1
    64   31   34 1
    65   35   36 1
    66   35   66 1
    67   35   67 1
    68   36   68 1
    69   36   69 1
    70   37   38 ar
    71   37   70 1
    72   38   39 1
##########                 Name:              T542370
##########          Protonation:                   51
##########               SMILES:   c1ccc(cc1)C[NH+]2CC[C@@H](CC2)[NH2+]Cc3c(cccc3)c4cc(ccc4)C[NH3+]
##########            Long Name:   (azaniumylmethyl)phenyl]phenyl]methyl-(1-benzylpiperidin-1-ium-4-yl)ammonium
##########          FlexRecCode: 1
##########               Number:                  239
##########   Ligand Source File: /raidb/db2/rgc/tcams/tcams-0002231.db2.gz
##########           GlobalRank: 382
##########                 Rank:                    1
##########               Setnum:                  145
##########             Matchnum:                 4281
##########                Cloud:                    1
##########        Electrostatic:           -63.920296
##########        Van der Waals:           -18.840046
##########  Ligand Polar Desolv:            21.785379
########## Ligand Apolar Desolv:            -3.401460
##########      Internal Energy:             0.000000
##########      Receptor Energy: 0.0
########## Receptor Desolvation:             0.000000
########## Receptor Hydrophobic:             0.000000
##########         Total Energy: -64.38
##########        Ligand Charge:             3.000000
##########            Arbitrary:    +999.9990
##########     heavy atom count:   29
##########           pose count:    1
##########        Ligand Energy:             0.000000
# num electro vdwattr vdwrepu polsolv apolsol rdesolv rhydroe totalscore fullpol fullapo
#   1   20.76   -2.37    1.95  -13.89    0.33    0.00    0.00       6.78  -36.09    0.87
#   2  -17.50   -0.08    0.01    9.04    0.21    0.00    0.00      -8.31   24.97    0.58
#   3  -17.40   -0.11    0.02   12.03    0.27    0.00    0.00      -5.19   26.69    0.59
#   4  -13.73   -0.03    0.00    7.98    0.18    0.00    0.00      -5.60   25.75    0.58
#   5   -0.62   -0.62    0.07    0.85   -0.14    0.00    0.00      -0.46    2.95   -0.50
#   6    2.57   -0.60    0.02   -1.25   -0.09    0.00    0.00       0.65   -5.26   -0.37
#   7    1.36   -0.67    0.03   -0.71   -0.10    0.00    0.00      -0.10   -3.04   -0.43
#   8    1.52   -0.69    0.02   -0.90   -0.07    0.00    0.00      -0.12   -3.46   -0.28
#   9    2.90   -1.28    0.20   -1.53   -0.13    0.00    0.00       0.15   -4.48   -0.37
#  10    2.69   -1.96    0.93   -2.38   -0.16    0.00    0.00      -0.88   -6.86   -0.47
#  11    1.34   -0.98    0.15   -1.15   -0.12    0.00    0.00      -0.76   -4.32   -0.46
#  12    0.71   -0.82    0.04   -0.10   -0.11    0.00    0.00      -0.27   -0.33   -0.37
#  13    1.56   -1.35    0.14   -2.09   -0.18    0.00    0.00      -1.93   -5.33   -0.46
#  14    0.98   -1.75    0.30   -2.65   -0.21    0.00    0.00      -3.33   -5.89   -0.47
#  15    1.45   -1.26    0.11   -2.74   -0.19    0.00    0.00      -2.64   -6.67   -0.47
#  16    1.43   -1.26    0.21   -1.16   -0.15    0.00    0.00      -0.93   -3.44   -0.45
#  17    3.32   -0.84    0.06   -1.25   -0.11    0.00    0.00       1.18   -4.39   -0.37
#  18   -0.80   -0.68    0.15    0.64   -0.09    0.00    0.00      -0.78    2.51   -0.34
#  19    8.31   -0.62    0.08   -7.11    0.14    0.00    0.00       0.80  -30.47    0.61
#  20   -6.90   -0.03    0.00    5.68    0.10    0.00    0.00      -1.14   28.59    0.49
#  21   -3.69   -0.01    0.00    3.33    0.04    0.00    0.00      -0.33   29.64    0.35
#  22   -0.21   -0.33    0.02    0.57   -0.05    0.00    0.00       0.00    3.09   -0.27
#  23    1.55   -0.21    0.01   -1.28   -0.03    0.00    0.00       0.04  -10.47   -0.22
#  24    0.19   -0.11    0.00   -0.12   -0.02    0.00    0.00      -0.06   -1.87   -0.37
#  25    4.17   -0.22    0.01   -2.40    0.03    0.00    0.00       1.58  -21.46    0.27
#  26   -3.67    0.00    0.00    1.05    0.02    0.00    0.00      -2.60   25.42    0.54
#  27   -0.39   -0.29    0.02    0.52   -0.05    0.00    0.00      -0.19    3.51   -0.36
#  28    1.83   -0.61    0.04   -1.00   -0.08    0.00    0.00       0.19   -4.26   -0.33
#  29    0.73   -1.27    0.21   -1.42   -0.16    0.00    0.00      -1.91   -3.87   -0.45
#  30    0.91   -2.18    0.59   -2.56   -0.21    0.00    0.00      -3.44   -5.75   -0.47
#  31    1.35   -2.31    0.73   -2.28   -0.20    0.00    0.00      -2.71   -5.23   -0.47
#  32    2.36   -1.69    0.69   -2.04   -0.17    0.00    0.00      -0.85   -5.54   -0.47
#  33    1.35   -0.63    0.03   -0.67   -0.09    0.00    0.00       0.00   -2.71   -0.36
#  34    0.64   -0.41    0.03   -0.65   -0.07    0.00    0.00      -0.45   -3.17   -0.33
#  35    4.18   -0.82    0.18   -2.41   -0.06    0.00    0.00       1.07   -9.00   -0.24
#  36   -1.30   -0.19    0.01    2.02   -0.07    0.00    0.00       0.48    8.45   -0.28
#  37   -1.25   -0.17    0.03    1.61   -0.04    0.00    0.00       0.18   10.61   -0.28
#  38   -1.21   -0.22    0.04    1.72   -0.05    0.00    0.00       0.29    9.55   -0.28
#  39   -6.53   -0.56    0.44    1.80   -0.08    0.00    0.00      -4.93    5.55   -0.25
#  40   -4.29   -1.54    5.55    1.49   -0.11    0.00    0.00       1.10    3.70   -0.28
#  41   -1.76   -0.26    0.08    1.18   -0.05    0.00    0.00      -0.82    6.52   -0.28
#  42   -2.47   -0.31    0.03    1.60   -0.10    0.00    0.00      -1.25    4.64   -0.28
#  43   -1.99   -0.53    0.13    0.64   -0.13    0.00    0.00      -1.88    1.39   -0.28
#  44   -2.16   -0.25    0.02    0.59   -0.08    0.00    0.00      -1.88    2.19   -0.28
#  45   -2.41   -0.60    0.47    2.36   -0.07    0.00    0.00      -0.25    9.32   -0.28
#  46   -3.63   -0.13    0.01    1.35   -0.02    0.00    0.00      -2.42   11.98   -0.22
#  47   -6.22   -0.68    1.11    2.29   -0.05    0.00    0.00      -3.54    8.57   -0.17
#  48   -2.53   -0.06    0.00    0.61   -0.02    0.00    0.00      -1.99   10.98   -0.28
#  49   -1.24   -0.12    0.02    0.91   -0.02    0.00    0.00      -0.45    8.68   -0.21
#  50   -0.82   -0.05    0.00    0.27   -0.01    0.00    0.00      -0.60    6.85   -0.28
#  51   -0.53   -0.02    0.00    0.32   -0.01    0.00    0.00      -0.23   12.67   -0.22
#  52   -1.09   -0.02    0.00    0.25   -0.01    0.00    0.00      -0.87    8.70   -0.28
#  53   -1.46   -0.22    0.07    1.71   -0.04    0.00    0.00       0.06   11.87   -0.28
#  54   -0.69   -0.04    0.00    0.39   -0.01    0.00    0.00      -0.36    8.32   -0.27
#  55   -0.74   -0.44    0.21    2.25   -0.10    0.00    0.00       1.19    6.61   -0.28
#  56   -0.42   -0.97    0.91    0.64   -0.13    0.00    0.00       0.01    1.34   -0.28
#  57   -3.64   -1.03    1.21    0.36   -0.14    0.00    0.00      -3.25    0.71   -0.28
#  58   -4.69   -1.08    2.68    1.10   -0.10    0.00    0.00      -2.07    3.24   -0.28
#  59   -1.46   -0.09    0.00    0.90   -0.02    0.00    0.00      -0.67   11.01   -0.28
#  60   -2.93   -0.18    0.02    2.26   -0.04    0.00    0.00      -0.87   13.32   -0.23
#  61   -2.98   -0.09    0.00    0.55   -0.02    0.00    0.00      -2.54    5.95   -0.20
#  62   -5.70   -0.69    0.81    1.88   -0.08    0.00    0.00      -3.79    6.43   -0.28
#  63   -3.02   -0.49    0.36    2.75   -0.08    0.00    0.00      -0.48    9.80   -0.28

@<TRIPOS>MOLECULE
          T542370        51
   63    66     0     0     0



@<TRIPOS>ATOM
      1 N1         -0.8718    -6.4306    94.5593 N.4        1          -0.6389
      2 H1         -0.4489    -6.5481    95.4679 H          1           0.4393
      3 H2         -1.7684    -6.8931    94.5431 H          1           0.4463
      4 H3         -0.9972    -5.4472    94.3715 H          1           0.4364
      5 C1          0.0006    -7.0175    93.5336 C.3        1           0.0425
      6 C2          1.3397    -6.3268    93.5576 C.ar       1          -0.1565
      7 C3          2.3518    -6.8138    94.3600 C.ar       1          -0.0901
      8 C4          3.5895    -6.1745    94.3808 C.ar       1          -0.0705
      9 C5          3.7984    -5.0460    93.5904 C.ar       1          -0.0899
     10 C6          2.7797    -4.5677    92.7919 C.ar       1          -0.1028
     11 C7          1.5543    -5.2096    92.7711 C.ar       1          -0.0780
     12 C8          4.6811    -6.6931    95.2419 C.ar       1          -0.0376
     13 C9          4.5040    -6.7757    96.6217 C.ar       1          -0.0958
     14 C10         5.5226    -7.2585    97.4178 C.ar       1          -0.0705
     15 C11         6.7179    -7.6599    96.8485 C.ar       1          -0.0990
     16 C12         6.8990    -7.5800    95.4798 C.ar       1          -0.0819
     17 C13         5.8847    -7.1043    94.6733 C.ar       1          -0.1602
     18 C14         6.0810    -7.0242    93.1814 C.3        1           0.0301
     19 N2          6.6933    -8.2700    92.7004 N.4        1          -0.5131
     20 H4          7.5866    -8.4013    93.1506 H          1           0.4301
     21 H5          6.0890    -9.0478    92.9188 H          1           0.4159
     22 C15         6.8846    -8.1918    91.2460 C.3        1           0.0130
     23 C16         7.5378    -9.4823    90.7440 C.3        1          -0.1697
     24 C17         7.7867    -9.3650    89.2390 C.3        1          -0.0253
     25 N3          8.6767    -8.2288    88.9705 N.4        1          -0.3855
     26 H6          8.8709    -8.1825    87.9814 H          1           0.4351
     27 C18         9.9354    -8.4120    89.7056 C.3        1           0.0438
     28 C19        10.8511    -7.2469    89.4318 C.ar       1          -0.1761
     29 C20        11.7632    -6.8448    90.3896 C.ar       1          -0.0890
     30 C21        12.6032    -5.7760    90.1386 C.ar       1          -0.1064
     31 C22        12.5314    -5.1097    88.9296 C.ar       1          -0.0731
     32 C23        11.6200    -5.5123    87.9714 C.ar       1          -0.1115
     33 C24        10.7829    -6.5837    88.2208 C.ar       1          -0.1039
     34 C25         8.0414    -6.9771    89.4008 C.3        1          -0.0321
     35 C26         7.8013    -7.0121    90.9115 C.3        1          -0.1639
     36 H7          0.1361    -8.0799    93.7364 H          1           0.1456
     37 H8         -0.4561    -6.8906    92.5520 H          1           0.1415
     38 H9          2.1844    -7.6886    94.9710 H          1           0.1407
     39 H10         4.7558    -4.5464    93.6031 H          1           0.1419
     40 H11         2.9405    -3.6932    92.1789 H          1           0.1483
     41 H12         0.7610    -4.8343    92.1416 H          1           0.1440
     42 H13         3.5715    -6.4620    97.0673 H          1           0.1371
     43 H14         5.3864    -7.3231    98.4872 H          1           0.1465
     44 H15         7.5126    -8.0365    97.4753 H          1           0.1462
     45 H16         7.8342    -7.8946    95.0406 H          1           0.1383
     46 H17         5.1159    -6.8824    92.6950 H          1           0.1466
     47 H18         6.7338    -6.1839    92.9453 H          1           0.1472
     48 H19         5.9200    -8.0552    90.7573 H          1           0.1700
     49 H20         8.4859    -9.6354    91.2596 H          1           0.1396
     50 H21         6.8758   -10.3258    90.9395 H          1           0.1429
     51 H22         8.2503   -10.2822    88.8757 H          1           0.1224
     52 H23         6.8376    -9.2112    88.7255 H          1           0.1635
     53 H24         9.7273    -8.4674    90.7741 H          1           0.1374
     54 H25        10.4148    -9.3352    89.3804 H          1           0.1477
     55 H26        11.8192    -7.3654    91.3341 H          1           0.1341
     56 H27        13.3153    -5.4614    90.8871 H          1           0.1425
     57 H28        13.1872    -4.2741    88.7337 H          1           0.1421
     58 H29        11.5636    -4.9914    87.0271 H          1           0.1389
     59 H30        10.0734    -6.9006    87.4709 H          1           0.1262
     60 H31         8.6923    -6.1377    89.1566 H          1           0.1207
     61 H32         7.0886    -6.8583    88.8850 H          1           0.1614
     62 H33         7.3284    -6.0821    91.2271 H          1           0.1416
     63 H34         8.7530    -7.1318    91.4292 H          1           0.1332
@<TRIPOS>BOND
     1    1    2 1
     2    1    3 1
     3    1    4 1
     4    1    5 1
     5    5    6 1
     6    5   36 1
     7    5   37 1
     8    6   11 ar
     9    6    7 ar
    10    7    8 ar
    11    7   38 1
    12    8    9 ar
    13    8   12 1
    14    9   10 ar
    15    9   39 1
    16   10   11 ar
    17   10   40 1
    18   11   41 1
    19   12   17 ar
    20   12   13 ar
    21   13   14 ar
    22   13   42 1
    23   14   15 ar
    24   14   43 1
    25   15   16 ar
    26   15   44 1
    27   16   17 ar
    28   16   45 1
    29   17   18 1
    30   18   19 1
    31   18   46 1
    32   18   47 1
    33   19   20 1
    34   19   21 1
    35   19   22 1
    36   22   35 1
    37   22   23 1
    38   22   48 1
    39   23   24 1
    40   23   49 1
    41   23   50 1
    42   24   25 1
    43   24   51 1
    44   24   52 1
    45   25   26 1
    46   25   27 1
    47   25   34 1
    48   27   28 1
    49   27   53 1
    50   27   54 1
    51   28   33 ar
    52   28   29 ar
    53   29   30 ar
    54   29   55 1
    55   30   31 ar
    56   30   56 1
    57   31   32 ar
    58   31   57 1
    59   32   33 ar
    60   32   58 1
    61   33   59 1
    62   34   35 1
    63   34   60 1
    64   34   61 1
    65   35   62 1
    66   35   63 1
##########                 Name:              T531384
##########          Protonation:                   86
##########               SMILES:   C[NH+]1CC[C@@H](C1)Oc2cc(ccc2C(F)(F)F)C(=O)NCc3ccc(c(c3)Cl)Cl
##########            Long Name:   thyl]-3-[(3S)-1-methylpyrrolidin-1-ium-3-yl]oxy-4-(trifluoromethyl)benzamide
##########          FlexRecCode: 1
##########               Number:                   30
##########   Ligand Source File: /raidb/db2/rgc/tcams/tcams-0000838.db2.gz
##########           GlobalRank: 384
##########                 Rank:                    1
##########               Setnum:                  314
##########             Matchnum:                 5364
##########                Cloud:                    1
##########        Electrostatic:           -42.834270
##########        Van der Waals:           -27.798239
##########  Ligand Polar Desolv:            10.126078
########## Ligand Apolar Desolv:            -3.864298
##########      Internal Energy:             0.000000
##########      Receptor Energy: 0.0
########## Receptor Desolvation:             0.000000
########## Receptor Hydrophobic:             0.000000
##########         Total Energy: -64.37
##########        Ligand Charge:             1.000000
##########            Arbitrary:    +999.9990
##########     heavy atom count:   29
##########           pose count:    1
##########        Ligand Energy:             0.000000
# num electro vdwattr vdwrepu polsolv apolsol rdesolv rhydroe totalscore fullpol fullapo
#   1    0.70   -1.21    0.49   -0.39   -0.15    0.00    0.00      -0.56   -1.27   -0.49
#   2   15.36   -2.80    3.14   -3.78    0.19    0.00    0.00      12.10  -11.42    0.57
#   3  -27.83   -0.33    0.18    6.92    0.24    0.00    0.00     -20.81   16.39    0.57
#   4    0.02   -1.10    0.56    0.17   -0.12    0.00    0.00      -0.48    0.64   -0.47
#   5    4.07   -0.44    0.05   -0.91   -0.05    0.00    0.00       2.73   -4.58   -0.25
#   6   -1.72   -0.62    0.14    0.13   -0.03    0.00    0.00      -2.11    0.57   -0.12
#   7   -0.02   -0.92    0.23    0.19   -0.13    0.00    0.00      -0.65    0.65   -0.45
#   8    4.17   -0.40    0.01   -1.00    0.14    0.00    0.00       2.93   -5.44    0.76
#   9   -2.32   -0.66    0.05    0.56   -0.06    0.00    0.00      -2.43    2.73   -0.30
#  10    2.11   -0.86    0.10   -0.55   -0.10    0.00    0.00       0.69   -2.13   -0.39
#  11    0.83   -1.28    0.13   -0.41   -0.16    0.00    0.00      -0.88   -1.06   -0.41
#  12    2.02   -1.70    0.29   -0.77   -0.21    0.00    0.00      -0.37   -1.61   -0.44
#  13    0.74   -1.20    0.10   -0.30   -0.19    0.00    0.00      -0.85   -0.68   -0.44
#  14    3.19   -0.70    0.02   -0.69   -0.10    0.00    0.00       1.73   -2.63   -0.37
#  15   -8.63   -0.41    0.01    1.18   -0.01    0.00    0.00      -7.86    4.75   -0.06
#  16    1.83   -0.23    0.00   -0.27   -0.08    0.00    0.00       1.26   -1.51   -0.44
#  17    2.80   -0.53    0.05   -0.51   -0.15    0.00    0.00       1.66   -1.66   -0.47
#  18    3.62   -0.47    0.02   -0.54   -0.16    0.00    0.00       2.46   -1.62   -0.47
#  19   -7.50   -1.82    0.31    2.96   -0.29    0.00    0.00      -6.34    6.63   -0.65
#  20    6.32   -3.71    2.61   -2.84    0.21    0.00    0.00       2.58   -5.22    0.39
#  21   11.45   -1.43    0.20   -4.08    1.01    0.00    0.00       7.16   -9.39    2.32
#  22   -2.70   -1.29    0.23    1.13   -0.23    0.00    0.00      -2.86    2.16   -0.44
#  23    1.46   -1.70    0.27   -0.45   -0.19    0.00    0.00      -0.60   -0.87   -0.37
#  24    1.36   -2.18    0.49   -0.41   -0.25    0.00    0.00      -0.98   -0.74   -0.45
#  25    1.13   -2.25    0.87   -0.53   -0.25    0.00    0.00      -1.04   -0.97   -0.46
#  26    0.17   -1.73    0.33   -0.20   -0.16    0.00    0.00      -1.60   -0.36   -0.30
#  27    0.21   -5.95    3.40   -0.23   -0.58    0.00    0.00      -3.15   -0.37   -0.95
#  28    0.22   -1.64    0.32   -0.19   -0.13    0.00    0.00      -1.42   -0.43   -0.30
#  29    0.09   -5.02    3.04   -0.17   -0.42    0.00    0.00      -2.48   -0.38   -0.95
#  30    0.65   -1.57    0.28   -0.28   -0.17    0.00    0.00      -1.09   -0.73   -0.45
#  31   -0.92   -0.10    0.00    0.50   -0.03    0.00    0.00      -0.55    4.32   -0.28
#  32   -1.52   -0.75    0.74    1.58   -0.10    0.00    0.00      -0.06    4.50   -0.28
#  33   -2.65   -0.39    0.18    0.82   -0.07    0.00    0.00      -2.11    3.37   -0.27
#  34   -3.00   -0.11    0.01    0.45   -0.03    0.00    0.00      -2.68    3.93   -0.27
#  35   -6.10   -0.91    1.53    1.70   -0.09    0.00    0.00      -3.87    5.52   -0.28
#  36   -1.64   -0.06    0.00    0.07   -0.01    0.00    0.00      -1.64    1.38   -0.27
#  37   -2.57   -0.14    0.01    0.42   -0.04    0.00    0.00      -2.31    2.92   -0.28
#  38   -4.69   -0.41    0.32    0.63   -0.04    0.00    0.00      -4.19    3.10   -0.22
#  39   -4.67   -0.50    0.20    1.81   -0.09    0.00    0.00      -3.26    5.80   -0.28
#  40   -2.09   -0.10    0.00    0.46   -0.03    0.00    0.00      -1.76    3.78   -0.27
#  41   -2.26   -0.13    0.01    0.38   -0.02    0.00    0.00      -2.04    3.31   -0.18
#  42   -2.74   -0.74    0.82    1.37   -0.10    0.00    0.00      -1.39    2.93   -0.22
#  43   -5.05   -0.41    0.19    0.73   -0.08    0.00    0.00      -4.64    2.06   -0.24
#  44   -7.94   -0.02    0.00    1.44    0.10    0.00    0.00      -6.42    6.48    0.43
#  45   -1.70   -0.58    0.21    0.44   -0.12    0.00    0.00      -1.76    1.00   -0.28
#  46   -1.48   -0.54    0.14    0.67   -0.15    0.00    0.00      -1.36    1.28   -0.28
#  47   -3.17   -0.60    0.16    1.55   -0.15    0.00    0.00      -2.21    2.86   -0.28
#  48   -1.51   -1.07    3.71    0.92   -0.15    0.00    0.00       1.89    1.71   -0.28
#  49   -0.92   -0.25    0.02    0.44   -0.07    0.00    0.00      -0.78    1.80   -0.28

@<TRIPOS>MOLECULE
          T531384        86
   49    51     0     0     0



@<TRIPOS>ATOM
      1 C1          5.1783    -5.4212    88.7653 C.3        1          -0.0416
      2 N1          5.4039    -5.3684    90.2160 N.4        1          -0.3949
      3 H1          5.7117    -4.4446    90.4802 H          1           0.4331
      4 C2          6.4153    -6.3538    90.5952 C.3        1          -0.0006
      5 C3          5.7585    -7.2940    91.6135 C.3        1          -0.1799
      6 C4          4.6513    -6.3956    92.2063 C.3        1           0.0623
      7 C5          4.1614    -5.6983    90.9234 C.3        1           0.0007
      8 O1          3.6126    -7.1761    92.8009 O.3        1          -0.2885
      9 C6          3.3781    -6.9847    94.1258 C.ar       1           0.1621
     10 C7          4.3849    -7.2187    95.0477 C.ar       1          -0.1520
     11 C8          4.1400    -7.0204    96.4065 C.ar       1          -0.0587
     12 C9          2.8816    -6.5871    96.8280 C.ar       1          -0.1124
     13 C10         1.8860    -6.3568    95.9012 C.ar       1          -0.0335
     14 C11         2.1317    -6.5489    94.5539 C.ar       1          -0.1835
     15 C12         1.0405    -6.2898    93.5474 C.3        1           0.5157
     16 F1          1.5200    -6.5567    92.2605 F          1          -0.1701
     17 F2         -0.0518    -7.1205    93.8197 F          1          -0.1715
     18 F3          0.6402    -4.9516    93.6277 F          1          -0.1717
     19 C13         5.2095    -7.2685    97.3971 C.2        1           0.5577
     20 O2          4.9222    -7.5794    98.5365 O.2        1          -0.5269
     21 N2          6.5027    -7.1499    97.0364 N.am       1          -0.7151
     22 C14         7.5622    -7.3956    98.0180 C.3        1           0.1627
     23 C15         7.9486    -8.8518    97.9860 C.ar       1          -0.1044
     24 C16         8.9318    -9.3246    98.8353 C.ar       1          -0.0822
     25 C17         9.2871   -10.6599    98.8069 C.ar       1          -0.0979
     26 C18         8.6585   -11.5245    97.9286 C.ar       1          -0.0210
     27 Cl1         9.1041   -13.2019    97.8929 Cl         1          -0.0352
     28 C19         7.6737   -11.0511    97.0785 C.ar       1          -0.0344
     29 Cl2         6.8834   -12.1347    95.9763 Cl         1          -0.0368
     30 C20         7.3158    -9.7151    97.1116 C.ar       1          -0.0791
     31 H2          4.8460    -6.4209    88.4854 H          1           0.1263
     32 H3          4.4146    -4.6939    88.4896 H          1           0.1276
     33 H4          6.1071    -5.1878    88.2445 H          1           0.1240
     34 H5          6.7341    -6.9175    89.7185 H          1           0.1385
     35 H6          7.2720    -5.8540    91.0474 H          1           0.1416
     36 H7          5.3297    -8.1656    91.1189 H          1           0.1256
     37 H8          6.4703    -7.5938    92.3826 H          1           0.1156
     38 H9          5.0622    -5.6776    92.9162 H          1           0.1173
     39 H10         3.6063    -4.7929    91.1683 H          1           0.1504
     40 H11         3.5484    -6.3750    90.3280 H          1           0.1497
     41 H12         5.3562    -7.5541    94.7156 H          1           0.1530
     42 H13         2.6875    -6.4325    97.8791 H          1           0.1470
     43 H14         0.9128    -6.0221    96.2285 H          1           0.1610
     44 H15         6.7319    -6.9018    96.1272 H          1           0.4058
     45 H16         8.4310    -6.7836    97.7756 H          1           0.0881
     46 H17         7.2020    -7.1370    99.0139 H          1           0.0896
     47 H18         9.4229    -8.6500    99.5210 H          1           0.1423
     48 H19        10.0558   -11.0284    99.4701 H          1           0.1488
     49 H20         6.5448    -9.3461    96.4516 H          1           0.1454
@<TRIPOS>BOND
     1    1    2 1
     2    1   31 1
     3    1   32 1
     4    1   33 1
     5    2    3 1
     6    2    7 1
     7    2    4 1
     8    4    5 1
     9    4   34 1
    10    4   35 1
    11    5    6 1
    12    5   36 1
    13    5   37 1
    14    6    7 1
    15    6    8 1
    16    6   38 1
    17    7   39 1
    18    7   40 1
    19    8    9 1
    20    9   14 ar
    21    9   10 ar
    22   10   11 ar
    23   10   41 1
    24   11   12 ar
    25   11   19 1
    26   12   13 ar
    27   12   42 1
    28   13   14 ar
    29   13   43 1
    30   14   15 1
    31   15   16 1
    32   15   17 1
    33   15   18 1
    34   19   20 2
    35   19   21 am
    36   21   22 1
    37   21   44 1
    38   22   23 1
    39   22   45 1
    40   22   46 1
    41   23   30 ar
    42   23   24 ar
    43   24   25 ar
    44   24   47 1
    45   25   26 ar
    46   25   48 1
    47   26   27 1
    48   26   28 ar
    49   28   29 1
    50   28   30 ar
    51   30   49 1
##########                 Name:              T531394
##########          Protonation:                   12
##########               SMILES:   Cn1c2c(c(c1)CCNc3nc([nH+]cc3)N4CC[C@@H](CC4)c5[nH+]cc[nH]5)cccc2
##########            Long Name:   um-2-yl)-1-piperidyl]-N-[2-(1-methylindol-3-yl)ethyl]pyrimidin-1-ium-4-amine
##########          FlexRecCode: 1
##########               Number:                   47
##########   Ligand Source File: /raidb/db2/rgc/tcams/tcams-0000829.db2.gz
##########           GlobalRank: 384
##########                 Rank:                    1
##########               Setnum:                  333
##########             Matchnum:                 1982
##########                Cloud:                    1
##########        Electrostatic:           -37.447094
##########        Van der Waals:           -29.980663
##########  Ligand Polar Desolv:             7.188284
########## Ligand Apolar Desolv:            -4.128592
##########      Internal Energy:             0.000000
##########      Receptor Energy: 0.0
########## Receptor Desolvation:             0.000000
########## Receptor Hydrophobic:             0.000000
##########         Total Energy: -64.37
##########        Ligand Charge:             2.000000
##########            Arbitrary:    +999.9990
##########     heavy atom count:   30
##########           pose count:    1
##########        Ligand Energy:             0.000000
# num electro vdwattr vdwrepu polsolv apolsol rdesolv rhydroe totalscore fullpol fullapo
#   1   -1.51   -1.85    0.46    0.57   -0.35    0.00    0.00      -2.69    0.96   -0.59
#   2    7.20   -1.68    0.21   -3.36    0.70    0.00    0.00       3.07   -6.56    1.37
#   3   -0.91   -1.81    0.57    0.28   -0.39    0.00    0.00      -2.26    0.69   -0.95
#   4    1.85   -1.39    0.32   -0.96   -0.13    0.00    0.00      -0.32   -2.89   -0.39
#   5    0.36   -0.88    0.34   -0.28   -0.07    0.00    0.00      -0.53   -0.98   -0.24
#   6   -0.61   -0.91    0.13    1.29   -0.13    0.00    0.00      -0.23    3.61   -0.37
#   7    6.14   -1.42    0.24   -6.13    0.57    0.00    0.00      -0.60  -18.59    1.72
#   8   -2.48   -1.05    0.25    3.53   -0.52    0.00    0.00      -0.26   14.35   -2.10
#   9    1.25   -0.79    0.12   -2.20   -0.10    0.00    0.00      -1.71  -10.17   -0.44
#  10   -0.20   -0.38    0.04    1.15   -0.12    0.00    0.00       0.49    9.21   -0.97
#  11    0.27   -0.36    0.05   -2.09    0.10    0.00    0.00      -2.02  -20.02    0.98
#  12   -0.16    0.00    0.00    0.82    0.02    0.00    0.00       0.67   18.66    0.42
#  13   -1.65   -0.62    0.18    3.02   -0.66    0.00    0.00       0.28   21.32   -4.67
#  14    1.84   -0.96    0.30   -3.71    0.35    0.00    0.00      -2.17  -18.56    1.76
#  15    3.70   -0.38    0.03   -2.58    0.22    0.00    0.00       0.99  -20.03    1.69
#  16   -0.47   -0.27    0.03    0.49   -0.06    0.00    0.00      -0.28    3.90   -0.48
#  17    1.17   -0.33    0.03   -0.79   -0.03    0.00    0.00       0.04   -4.94   -0.21
#  18    0.89   -0.42    0.04   -0.18   -0.03    0.00    0.00       0.28   -0.91   -0.17
#  19    3.40   -0.55    0.10   -1.17   -0.05    0.00    0.00       1.72   -5.12   -0.22
#  20   -1.67   -0.28    0.01    0.60   -0.09    0.00    0.00      -1.43    3.40   -0.49
#  21   -8.76   -0.94    0.12    3.22   -0.50    0.00    0.00      -6.86   12.33   -1.92
#  22   12.00   -0.95    0.07   -5.39    0.33    0.00    0.00       6.06  -17.98    1.09
#  23   -8.94   -0.01    0.00    2.78    0.08    0.00    0.00      -6.09   18.34    0.54
#  24   -0.67   -1.66    0.27   -0.09   -0.42    0.00    0.00      -2.58   -0.23   -1.03
#  25   -0.86   -1.82    0.26   -0.10   -0.46    0.00    0.00      -2.97   -0.22   -1.03
#  26   16.39   -1.33    0.28   -6.53    0.42    0.00    0.00       9.23  -17.89    1.14
#  27    0.91   -1.26    0.12   -0.63   -0.16    0.00    0.00      -1.01   -1.75   -0.45
#  28    0.42   -1.75    0.84   -0.32   -0.15    0.00    0.00      -0.96   -0.96   -0.47
#  29    1.14   -1.80    0.47   -0.83   -0.18    0.00    0.00      -1.20   -2.14   -0.47
#  30    1.23   -2.47    0.74   -0.67   -0.23    0.00    0.00      -1.39   -1.38   -0.47
#  31    1.68   -2.48    0.66   -0.88   -0.24    0.00    0.00      -1.26   -1.66   -0.46
#  32   -1.23   -1.61    0.22    0.13   -0.35    0.00    0.00      -2.85    0.27   -0.74
#  33   -1.40   -0.52    0.13    0.42   -0.14    0.00    0.00      -1.51    0.85   -0.28
#  34   -2.05   -0.78    0.30    1.28   -0.16    0.00    0.00      -1.42    2.23   -0.28
#  35   -2.25   -1.10    1.71    0.52   -0.15    0.00    0.00      -1.28    0.94   -0.28
#  36   -1.98   -0.39    0.11    1.37   -0.08    0.00    0.00      -0.97    4.59   -0.28
#  37   -0.62   -0.18    0.03    0.40   -0.04    0.00    0.00      -0.43    2.48   -0.28
#  38   -0.73   -0.68    1.55    0.37   -0.06    0.00    0.00       0.46    1.81   -0.28
#  39   -0.83   -0.24    0.02    0.53   -0.07    0.00    0.00      -0.59    2.06   -0.27
#  40    0.07   -0.61    0.30    0.82   -0.09    0.00    0.00       0.48    2.50   -0.27
#  41   -7.80   -0.04    0.00    3.41    0.17    0.00    0.00      -4.25   11.49    0.58
#  42   -1.90   -0.29    0.15    1.10   -0.05    0.00    0.00      -1.00    5.48   -0.24
#  43   -0.12   -0.04    0.00    0.37   -0.01    0.00    0.00       0.21   10.93   -0.28
#  44   -0.52   -0.04    0.00    0.13   -0.01    0.00    0.00      -0.44    3.45   -0.28
#  45    0.00   -0.16    0.05    0.28   -0.03    0.00    0.00       0.14    2.54   -0.24
#  46   -0.83   -0.07    0.00    0.26   -0.02    0.00    0.00      -0.66    3.74   -0.28
#  47   -0.15   -0.22    0.07    0.53   -0.04    0.00    0.00       0.19    3.46   -0.26
#  48   -3.36   -0.15    0.01    0.95   -0.04    0.00    0.00      -2.58    6.81   -0.28
#  49   -4.43   -0.55    0.67    1.19   -0.07    0.00    0.00      -3.19    5.00   -0.28
#  50   -1.64   -0.12    0.01    0.42   -0.04    0.00    0.00      -1.37    3.37   -0.28
#  51   -1.36   -0.10    0.01    0.53   -0.02    0.00    0.00      -0.95    5.18   -0.20
#  52   -1.98   -0.07    0.00    0.33   -0.02    0.00    0.00      -1.74    4.92   -0.28
#  53   -6.18   -0.57    0.25    2.93   -0.10    0.00    0.00      -3.67    8.31   -0.28
#  54   -7.41   -0.74    0.34    3.72   -0.13    0.00    0.00      -4.21    8.31   -0.28
#  55  -16.68   -0.02    0.00    3.99    0.12    0.00    0.00     -12.58   18.88    0.59
#  56    0.00   -0.50    0.57    0.67   -0.06    0.00    0.00       0.67    3.14   -0.28
#  57   -1.01   -0.29    0.06    0.50   -0.07    0.00    0.00      -0.81    2.01   -0.28
#  58   -2.08   -0.66    0.21    0.66   -0.14    0.00    0.00      -2.00    1.31   -0.28
#  59   -1.92   -0.68    0.20    0.52   -0.15    0.00    0.00      -2.03    0.98   -0.28

@<TRIPOS>MOLECULE
          T531394        12
   59    63     0     0     0



@<TRIPOS>ATOM
      1 C1          9.1519    -8.4461    99.1374 C.3        1           0.0721
      2 N1          8.3763    -8.7869    97.9421 N.pl3      1          -0.4814
      3 C2          8.8196    -9.5762    96.9160 C.2        1           0.0757
      4 C3          7.8646    -9.6879    95.9793 C.2        1          -0.1961
      5 C4          7.9566   -10.4698    94.6943 C.3        1          -0.0470
      6 C5          7.4654   -11.8993    94.9308 C.3        1           0.1021
      7 N2          7.5548   -12.6595    93.6817 N.pl3      1          -0.6478
      8 C6          6.8479   -12.2433    92.5655 C.ar       1           0.5163
      9 C7          6.5737   -13.1359    91.5267 C.ar       1          -0.2621
     10 C8          5.8656   -12.6771    90.4336 C.ar       1           0.2085
     11 N3          5.4696   -11.4129    90.4016 N.ar       1          -0.5781
     12 H1          4.9721   -11.0868    89.6355 H          1           0.4380
     13 C9          5.7435   -10.5880    91.4014 C.ar       1           0.6562
     14 N4          6.4160   -10.9900    92.4697 N.ar       1          -0.5783
     15 N5          5.3120    -9.2750    91.3304 N.pl3      1          -0.5818
     16 C10         3.8806    -8.9621    91.2227 C.3        1           0.1224
     17 C11         3.5055    -7.9799    92.3369 C.3        1          -0.1427
     18 C12         4.4233    -6.7574    92.2640 C.3        1          -0.0399
     19 C13         5.8750    -7.1940    92.4736 C.3        1          -0.1362
     20 C14         6.2765    -8.1672    91.3672 C.3        1           0.1055
     21 C15         4.0350    -5.7733    93.3374 C.cat      1           0.3070
     22 N6          2.8523    -5.1922    93.4579 N.pl3      1          -0.4828
     23 H2          2.0907    -5.3262    92.8723 H          1           0.4631
     24 C16         2.8882    -4.3811    94.5358 C.2        1           0.0234
     25 C17         4.1208    -4.4795    95.0719 C.2        1           0.0265
     26 N7          4.8192    -5.3532    94.3171 N.pl3      1          -0.4801
     27 C18         6.7160    -8.9062    96.4435 C.ar       1          -0.1009
     28 C19         5.4490    -8.6392    95.9209 C.ar       1          -0.0809
     29 C20         4.5806    -7.8481    96.6186 C.ar       1          -0.1376
     30 C21         4.9478    -7.3069    97.8432 C.ar       1          -0.0952
     31 C22         6.1928    -7.5572    98.3768 C.ar       1          -0.1221
     32 C23         7.0907    -8.3656    97.6868 C.ar       1           0.0958
     33 H3         10.1349    -8.9136    99.0782 H          1           0.0755
     34 H4          9.2674    -7.3640    99.1991 H          1           0.0868
     35 H5          8.6306    -8.8071   100.0240 H          1           0.0855
     36 H6          9.7935   -10.0404    96.8671 H          1           0.1688
     37 H7          7.3371    -9.9939    93.9342 H          1           0.0831
     38 H8          8.9927   -10.4929    94.3565 H          1           0.0834
     39 H9          8.0849   -12.3754    95.6910 H          1           0.0928
     40 H10         6.4293   -11.8763    95.2688 H          1           0.0916
     41 H11         8.1091   -13.4543    93.6363 H          1           0.4256
     42 H12         6.9081   -14.1616    91.5773 H          1           0.1867
     43 H13         5.6372   -13.3414    89.6133 H          1           0.2168
     44 H14         3.6775    -8.5090    90.2525 H          1           0.1002
     45 H15         3.2976    -9.8767    91.3305 H          1           0.1266
     46 H16         2.4696    -7.6651    92.2109 H          1           0.1095
     47 H17         3.6233    -8.4660    93.3054 H          1           0.0832
     48 H18         4.3234    -6.2860    91.2863 H          1           0.1367
     49 H19         6.5256    -6.3199    92.4448 H          1           0.1086
     50 H20         5.9705    -7.6875    93.4408 H          1           0.0882
     51 H21         7.2738    -8.5575    91.5701 H          1           0.0941
     52 H22         6.2732    -7.6478    90.4089 H          1           0.1112
     53 H23         2.0788    -3.7663    94.9009 H          1           0.2314
     54 H24         4.4818    -3.9582    95.9462 H          1           0.2322
     55 H25         5.7385    -5.6248    94.4657 H          1           0.4669
     56 H26         5.1566    -9.0562    94.9685 H          1           0.1163
     57 H27         3.6007    -7.6419    96.2140 H          1           0.1243
     58 H28         4.2506    -6.6832    98.3827 H          1           0.1297
     59 H29         6.4694    -7.1310    99.3299 H          1           0.1227
@<TRIPOS>BOND
     1    1    2 1
     2    1   33 1
     3    1   34 1
     4    1   35 1
     5    2   32 1
     6    2    3 1
     7    3    4 2
     8    3   36 1
     9    4    5 1
    10    4   27 1
    11    5    6 1
    12    5   37 1
    13    5   38 1
    14    6    7 1
    15    6   39 1
    16    6   40 1
    17    7    8 1
    18    7   41 1
    19    8   14 ar
    20    8    9 ar
    21    9   10 ar
    22    9   42 1
    23   10   11 ar
    24   10   43 1
    25   11   12 1
    26   11   13 ar
    27   13   14 ar
    28   13   15 1
    29   15   20 1
    30   15   16 1
    31   16   17 1
    32   16   44 1
    33   16   45 1
    34   17   18 1
    35   17   46 1
    36   17   47 1
    37   18   19 1
    38   18   21 1
    39   18   48 1
    40   19   20 1
    41   19   49 1
    42   19   50 1
    43   20   51 1
    44   20   52 1
    45   21   26 1
    46   21   22 2
    47   22   23 1
    48   22   24 1
    49   24   25 2
    50   24   53 1
    51   25   26 1
    52   25   54 1
    53   26   55 1
    54   27   32 ar
    55   27   28 ar
    56   28   29 ar
    57   28   56 1
    58   29   30 ar
    59   29   57 1
    60   30   31 ar
    61   30   58 1
    62   31   32 ar
    63   31   59 1
##########                 Name:              T529108
##########          Protonation:                   34
##########               SMILES:   COc1ccc(cc1)/N=c/2\[nH]c(cc[nH+]2)NCCNC(=O)Nc3ccccc3F
##########            Long Name:   -[2-[[(2E)-2-(4-methoxyphenyl)imino-1H-pyrimidin-3-ium-6-yl]amino]ethyl]urea
##########          FlexRecCode: 1
##########               Number:                  102
##########   Ligand Source File: /raidb/db2/rgc/tcams/tcams-0000514.db2.gz
##########           GlobalRank: 385
##########                 Rank:                    1
##########               Setnum:                  101
##########             Matchnum:                 3648
##########                Cloud:                    1
##########        Electrostatic:           -40.163219
##########        Van der Waals:           -25.191454
##########  Ligand Polar Desolv:             3.774555
########## Ligand Apolar Desolv:            -2.762278
##########      Internal Energy:             0.000000
##########      Receptor Energy: 0.0
########## Receptor Desolvation:             0.000000
########## Receptor Hydrophobic:             0.000000
##########         Total Energy: -64.34
##########        Ligand Charge:             1.000000
##########            Arbitrary:    +999.9990
##########     heavy atom count:   29
##########           pose count:    1
##########        Ligand Energy:             0.000000
# num electro vdwattr vdwrepu polsolv apolsol rdesolv rhydroe totalscore fullpol fullapo
#   1   -0.58   -0.70    0.06    0.04    0.01    0.00    0.00      -1.18    0.12    0.03
#   2    5.25   -0.42    0.01   -0.64    0.20    0.00    0.00       4.40   -3.02    0.93
#   3   -2.57   -0.56    0.03    0.12   -0.06    0.00    0.00      -3.04    0.63   -0.31
#   4    2.41   -0.28    0.01   -0.26   -0.05    0.00    0.00       1.83   -2.36   -0.42
#   5    1.47   -0.27    0.01   -0.20   -0.04    0.00    0.00       0.97   -1.96   -0.37
#   6   -0.49   -0.63    0.05    0.25   -0.12    0.00    0.00      -0.94    1.18   -0.58
#   7    1.31   -2.14    1.08   -0.38   -0.15    0.00    0.00      -0.27   -1.19   -0.47
#   8    3.38   -1.71    0.59   -0.46   -0.14    0.00    0.00       1.67   -1.51   -0.46
#   9    5.31   -0.56    0.03   -2.14    0.43    0.00    0.00       3.07  -10.20    2.04
#  10   -9.42   -0.68    0.06    2.99   -1.03    0.00    0.00      -8.08   13.44   -4.62
#  11   19.40   -1.24    0.32   -3.99    0.25    0.00    0.00      14.74  -15.55    0.96
#  12  -16.84   -1.05    0.19    3.88   -0.54    0.00    0.00     -14.37   14.59   -2.04
#  13   24.56   -1.75    0.90   -6.44    0.62    0.00    0.00      17.89  -17.36    1.68
#  14   -1.76   -0.88    0.11    0.78   -0.15    0.00    0.00      -1.91    2.00   -0.39
#  15   -3.13   -1.24    0.47    1.07   -0.19    0.00    0.00      -3.03    2.39   -0.43
#  16   14.97   -1.37    0.21   -4.31    0.88    0.00    0.00      10.39  -11.63    2.38
#  17   -9.79   -1.32    0.18    2.57   -0.78    0.00    0.00      -9.13    6.98   -2.11
#  18    7.51   -1.26    0.09   -1.74    0.15    0.00    0.00       4.74   -3.70    0.32
#  19    6.96   -1.46    0.36   -2.00    0.55    0.00    0.00       4.40   -6.20    1.70
#  20   -1.06   -1.22    0.11    0.28   -0.26    0.00    0.00      -2.15    0.73   -0.69
#  21    1.20   -1.71    0.46   -0.35   -0.20    0.00    0.00      -0.60   -0.76   -0.42
#  22    0.91   -2.66    1.81   -0.38   -0.26    0.00    0.00      -0.59   -0.70   -0.47
#  23    0.72   -2.51    0.64   -0.50   -0.28    0.00    0.00      -1.93   -0.82   -0.47
#  24    1.08   -1.84    0.25   -0.46   -0.26    0.00    0.00      -1.23   -0.84   -0.47
#  25   -0.43   -1.27    0.11    0.04   -0.15    0.00    0.00      -1.72    0.08   -0.34
#  26    0.88   -0.65    0.05   -0.26   -0.16    0.00    0.00      -0.13   -0.73   -0.46
#  27    7.32   -0.69    0.02   -2.42   -0.12    0.00    0.00       4.11   -9.39   -0.46
#  28   -4.76   -0.58    0.02    2.08   -0.21    0.00    0.00      -3.44    9.74   -0.97
#  29    6.24   -0.54    0.04   -2.67    0.19    0.00    0.00       3.25  -14.31    1.01
#  30   -2.76   -0.01    0.00    1.06    0.05    0.00    0.00      -1.65   12.90    0.59
#  31   -1.50   -0.23    0.03    0.19   -0.06    0.00    0.00      -1.58    0.77   -0.26
#  32   -2.99   -0.23    0.02    0.32   -0.08    0.00    0.00      -2.96    1.14   -0.28
#  33   -1.83   -0.36    0.09    0.53   -0.09    0.00    0.00      -1.66    1.58   -0.26
#  34   -1.24   -0.03    0.00    0.09   -0.01    0.00    0.00      -1.19    2.68   -0.22
#  35   -0.92   -0.03    0.00    0.11   -0.01    0.00    0.00      -0.85    3.20   -0.28
#  36   -5.03   -1.26    2.80    0.55   -0.11    0.00    0.00      -3.04    1.39   -0.28
#  37   -5.30   -0.61    0.41    0.26   -0.09    0.00    0.00      -5.33    0.79   -0.28
#  38  -17.34   -0.03    0.00    2.14    0.06    0.00    0.00     -15.16   10.28    0.31
#  39  -23.77   -0.10    0.03    3.70    0.16    0.00    0.00     -19.98   13.01    0.56
#  40   -2.90   -0.50    0.17    1.13   -0.09    0.00    0.00      -2.20    3.34   -0.28
#  41   -1.95   -0.17    0.01    0.46   -0.05    0.00    0.00      -1.69    2.83   -0.28
#  42   -2.68   -0.49    0.17    0.64   -0.14    0.00    0.00      -2.50    1.31   -0.28
#  43   -1.66   -0.69    1.20    0.51   -0.09    0.00    0.00      -0.73    1.57   -0.28
#  44   -9.18   -0.02    0.00    1.99    0.13    0.00    0.00      -7.08    8.62    0.57
#  45   -4.35   -0.03    0.00    1.05    0.11    0.00    0.00      -3.22    5.25    0.57
#  46   -2.40   -0.31    0.04    0.22   -0.06    0.00    0.00      -2.52    0.63   -0.18
#  47   -1.43   -0.70    0.46    0.74   -0.15    0.00    0.00      -1.08    1.34   -0.28
#  48   -0.96   -1.20    1.92    0.94   -0.17    0.00    0.00       0.53    1.51   -0.28
#  49   -1.84   -0.54    0.19    0.58   -0.14    0.00    0.00      -1.75    1.14   -0.28
#  50   -4.55   -0.14    0.00    1.02   -0.04    0.00    0.00      -3.71    7.88   -0.28
#  51   -3.63   -0.11    0.00    1.06   -0.03    0.00    0.00      -2.71   10.73   -0.28

@<TRIPOS>MOLECULE
          T529108        34
   51    53     0     0     0



@<TRIPOS>ATOM
      1 C1          9.2151    -5.4085    87.4477 C.3        1           0.0226
      2 O1          8.6510    -6.6414    87.8987 O.3        1          -0.3075
      3 C2          7.3828    -6.5977    88.3885 C.ar       1           0.1414
      4 C3          6.7786    -7.7595    88.8480 C.ar       1          -0.1915
      5 C4          5.4926    -7.7206    89.3453 C.ar       1          -0.1254
      6 C5          4.7984    -6.5089    89.3862 C.ar       1           0.0327
      7 C6          5.4112    -5.3421    88.9226 C.ar       1          -0.0556
      8 C7          6.6995    -5.3906    88.4321 C.ar       1          -0.1292
      9 N1          3.5227    -6.4652    89.8778 N.2        1          -0.4919
     10 C8          3.3173    -6.2434    91.1672 C.2        1           0.5527
     11 N2          4.3814    -5.9337    91.9821 N.pl3      1          -0.6350
     12 C9          4.1678    -5.7049    93.3136 C.2        1           0.5573
     13 N3          5.2138    -5.3941    94.1445 N.pl3      1          -0.6555
     14 C10         5.0791    -5.5781    95.5918 C.3        1           0.0648
     15 C11         6.4482    -5.8983    96.1946 C.3        1           0.1299
     16 N4          6.9714    -7.1273    95.5925 N.am       1          -0.7430
     17 C12         7.2457    -8.1943    96.3691 C.2        1           0.7121
     18 O2          7.0591    -8.1368    97.5693 O.2        1          -0.5574
     19 N5          7.7269    -9.3248    95.8154 N.am       1          -0.6736
     20 C13         8.0119   -10.4338    96.6223 C.ar       1           0.1283
     21 C14         8.4023   -10.2519    97.9418 C.ar       1          -0.1139
     22 C15         8.6829   -11.3472    98.7354 C.ar       1          -0.1043
     23 C16         8.5757   -12.6248    98.2175 C.ar       1          -0.1065
     24 C17         8.1873   -12.8113    96.9036 C.ar       1          -0.1282
     25 C18         7.8993   -11.7195    96.1051 C.ar       1           0.0637
     26 F1          7.5142   -11.9016    94.8230 F          1          -0.1391
     27 C19         2.8774    -5.7920    93.8083 C.2        1          -0.3342
     28 C20         1.8379    -6.1084    92.9417 C.2        1           0.3023
     29 N6          2.0772    -6.3179    91.6617 N.pl3      1          -0.5446
     30 H1          1.3405    -6.5339    91.0687 H          1           0.4630
     31 H2         10.2273    -5.5839    87.0828 H          1           0.0611
     32 H3          8.6038    -5.0023    86.6418 H          1           0.1100
     33 H4          9.2449    -4.6986    88.2743 H          1           0.0569
     34 H5          7.3161    -8.6957    88.8160 H          1           0.1393
     35 H6          5.0230    -8.6253    89.7020 H          1           0.1246
     36 H7          4.8786    -4.4031    88.9521 H          1           0.1438
     37 H8          7.1756    -4.4885    88.0773 H          1           0.1472
     38 H9          5.2775    -5.8782    91.6148 H          1           0.4447
     39 H10         6.0426    -5.0526    93.7741 H          1           0.4465
     40 H11         4.6898    -4.6636    96.0395 H          1           0.0984
     41 H12         4.3927    -6.4010    95.7911 H          1           0.0990
     42 H13         7.1347    -5.0754    95.9952 H          1           0.0902
     43 H14         6.3483    -6.0353    97.2714 H          1           0.0903
     44 H15         7.1203    -7.1732    94.6352 H          1           0.4021
     45 H16         7.8758    -9.3707    94.8580 H          1           0.4119
     46 H17         8.4869    -9.2546    98.3477 H          1           0.1640
     47 H18         8.9870   -11.2054    99.7620 H          1           0.1360
     48 H19         8.7963   -13.4790    98.8405 H          1           0.1375
     49 H20         8.1045   -13.8105    96.5020 H          1           0.1427
     50 H21         2.6810    -5.6165    94.8556 H          1           0.1972
     51 H22         0.8280    -6.1788    93.3177 H          1           0.2220
@<TRIPOS>BOND
     1    1    2 1
     2    1   31 1
     3    1   32 1
     4    1   33 1
     5    2    3 1
     6    3    8 ar
     7    3    4 ar
     8    4    5 ar
     9    4   34 1
    10    5    6 ar
    11    5   35 1
    12    6    7 ar
    13    6    9 1
    14    7    8 ar
    15    7   36 1
    16    8   37 1
    17    9   10 2
    18   10   29 1
    19   10   11 1
    20   11   12 1
    21   11   38 1
    22   12   13 1
    23   12   27 2
    24   13   14 1
    25   13   39 1
    26   14   15 1
    27   14   40 1
    28   14   41 1
    29   15   16 1
    30   15   42 1
    31   15   43 1
    32   16   17 am
    33   16   44 1
    34   17   18 2
    35   17   19 am
    36   19   20 1
    37   19   45 1
    38   20   25 ar
    39   20   21 ar
    40   21   22 ar
    41   21   46 1
    42   22   23 ar
    43   22   47 1
    44   23   24 ar
    45   23   48 1
    46   24   25 ar
    47   24   49 1
    48   25   26 1
    49   27   28 1
    50   27   50 1
    51   28   29 2
    52   28   51 1
    53   29   30 1
##########                 Name:              T531080
##########          Protonation:                   65
##########               SMILES:   Cc1cc(ccc1O[C@@H]2CC[NH+](C2)C)C[NH+]3CC[C@@H](C3)NC(=O)c4ccc(c(c4)Cl)Cl
##########            Long Name:   ethylpyrrolidin-1-ium-3-yl]oxy-phenyl]methyl]pyrrolidin-1-ium-3-yl]benzamide
##########          FlexRecCode: 1
##########               Number:                  232
##########   Ligand Source File: /raidb/db2/rgc/tcams/tcams-0000839.db2.gz
##########           GlobalRank: 389
##########                 Rank:                    1
##########               Setnum:                  126
##########             Matchnum:                 5559
##########                Cloud:                    1
##########        Electrostatic:           -59.404640
##########        Van der Waals:           -18.636736
##########  Ligand Polar Desolv:            16.495054
########## Ligand Apolar Desolv:            -2.786175
##########      Internal Energy:             0.000000
##########      Receptor Energy: 0.0
########## Receptor Desolvation:             0.000000
########## Receptor Hydrophobic:             0.000000
##########         Total Energy: -64.33
##########        Ligand Charge:             2.000000
##########            Arbitrary:    +999.9990
##########     heavy atom count:   31
##########           pose count:    1
##########        Ligand Energy:             0.000000
# num electro vdwattr vdwrepu polsolv apolsol rdesolv rhydroe totalscore fullpol fullapo
#   1    1.35   -1.23    0.26   -0.80   -0.20    0.00    0.00      -0.62   -1.80   -0.46
#   2   13.40   -2.42    3.03   -5.89    0.24    0.00    0.00       8.36  -14.22    0.59
#   3  -23.69   -0.31    0.32    8.08    0.24    0.00    0.00     -15.36   18.79    0.56
#   4    0.26   -1.72    0.72    0.16   -0.23    0.00    0.00      -0.81    0.34   -0.49
#   5    4.14   -0.86    0.07   -2.60   -0.11    0.00    0.00       0.64   -6.04   -0.26
#   6   -1.23   -0.47    0.01    0.44   -0.03    0.00    0.00      -1.28    1.61   -0.12
#   7    0.20   -0.65    0.07    0.04   -0.15    0.00    0.00      -0.49    0.14   -0.48
#   8    1.77   -1.01    0.32   -2.61    0.21    0.00    0.00      -1.32   -9.79    0.78
#   9   -0.89   -1.03    0.37    0.68   -0.06    0.00    0.00      -0.93    3.31   -0.31
#  10    3.55   -0.67    0.04   -1.58   -0.09    0.00    0.00       1.26   -7.19   -0.41
#  11    1.25   -0.76    0.08   -0.47   -0.09    0.00    0.00       0.01   -2.01   -0.40
#  12    2.48   -0.46    0.02   -1.03   -0.06    0.00    0.00       0.95   -5.58   -0.35
#  13   -0.71   -0.28    0.01    0.46   -0.06    0.00    0.00      -0.57    2.77   -0.36
#  14    9.17   -0.72    0.11   -3.71    0.10    0.00    0.00       4.95  -15.64    0.42
#  15  -14.41   -0.03    0.00    5.04    0.15    0.00    0.00      -9.26   19.08    0.56
#  16    0.08   -0.51    0.06    0.19   -0.08    0.00    0.00      -0.26    0.88   -0.38
#  17    3.21   -0.41    0.03   -1.17   -0.06    0.00    0.00       1.59   -5.52   -0.28
#  18   -2.93   -0.62    0.10    0.89   -0.08    0.00    0.00      -2.64    3.41   -0.32
#  19    0.22   -0.55    0.07    0.21   -0.10    0.00    0.00      -0.14    0.92   -0.44
#  20   11.24   -0.58    0.02   -4.60    0.46    0.00    0.00       6.54  -20.13    2.01
#  21   -6.64   -0.68    0.03    3.40   -0.18    0.00    0.00      -4.07   12.06   -0.65
#  22    5.85   -0.99    0.08   -3.41    0.14    0.00    0.00       1.67   -9.18    0.39
#  23    0.33   -0.66    0.06   -0.56   -0.09    0.00    0.00      -0.93   -2.41   -0.41
#  24    0.16   -0.56    0.06   -0.05   -0.08    0.00    0.00      -0.49   -0.29   -0.44
#  25    0.19   -0.79    0.26   -0.36   -0.08    0.00    0.00      -0.78   -1.97   -0.46
#  26    0.00   -0.71    0.14   -0.12   -0.05    0.00    0.00      -0.74   -0.65   -0.29
#  27    0.02   -1.05    0.15   -0.17   -0.16    0.00    0.00      -1.21   -0.99   -0.95
#  28    0.06   -0.74    0.07   -0.22   -0.07    0.00    0.00      -0.90   -0.96   -0.29
#  29    0.02   -1.55    0.27   -0.27   -0.27    0.00    0.00      -1.80   -0.95   -0.95
#  30    0.19   -1.01    0.16   -0.31   -0.13    0.00    0.00      -1.10   -1.09   -0.44
#  31    0.27   -0.62    0.12   -0.36   -0.07    0.00    0.00      -0.65   -2.29   -0.44
#  32    0.06   -1.31    0.66   -0.99   -0.08    0.00    0.00      -1.67   -5.00   -0.41
#  33   -0.01   -1.45    1.30   -0.64   -0.05    0.00    0.00      -0.85   -2.61   -0.20
#  34   -2.97   -0.25    0.02    1.25   -0.08    0.00    0.00      -2.03    4.55   -0.28
#  35   -3.79   -0.47    0.32    1.51   -0.09    0.00    0.00      -2.51    4.96   -0.28
#  36   -3.33   -0.53    0.14    2.15   -0.12    0.00    0.00      -1.69    5.11   -0.28
#  37   -3.49   -0.78    0.97    2.61   -0.11    0.00    0.00      -0.80    6.52   -0.27
#  38   -5.08   -0.92    0.59    3.38   -0.16    0.00    0.00      -2.18    6.11   -0.28
#  39   -3.00   -0.28    0.02    1.19   -0.07    0.00    0.00      -2.13    4.21   -0.25
#  40   -2.46   -0.32    0.04    0.99   -0.11    0.00    0.00      -1.85    2.53   -0.28
#  41   -2.38   -0.11    0.00    0.47   -0.02    0.00    0.00      -2.05    4.53   -0.22
#  42   -2.81   -0.24    0.03    1.29   -0.08    0.00    0.00      -1.81    4.70   -0.28
#  43   -2.50   -0.13    0.00    0.82   -0.03    0.00    0.00      -1.84    6.16   -0.26
#  44   -3.14   -0.13    0.00    0.65   -0.02    0.00    0.00      -2.63    5.84   -0.18
#  45   -4.24   -0.30    0.09    1.75   -0.06    0.00    0.00      -2.76    7.67   -0.28
#  46   -1.64   -0.12    0.02    0.79   -0.03    0.00    0.00      -0.99    7.24   -0.28
#  47   -1.28   -0.04    0.00    0.31   -0.01    0.00    0.00      -1.02    8.53   -0.27
#  48   -1.94   -0.06    0.00    0.46   -0.01    0.00    0.00      -1.55    8.11   -0.26
#  49   -4.63   -0.40    0.16    1.38   -0.06    0.00    0.00      -3.56    5.94   -0.26
#  50   -1.42   -0.06    0.00    0.12   -0.01    0.00    0.00      -1.37    2.34   -0.27
#  51   -2.47   -0.18    0.02    0.33   -0.05    0.00    0.00      -2.36    1.81   -0.28
#  52   -3.95   -0.59    0.63    0.60   -0.08    0.00    0.00      -3.38    2.00   -0.26
#  53   -2.65   -0.43    0.25    1.87   -0.07    0.00    0.00      -1.02    7.34   -0.28
#  54   -1.58   -0.07    0.00    0.63   -0.02    0.00    0.00      -1.03    8.93   -0.26
#  55   -5.35   -0.01    0.00    1.51    0.04    0.00    0.00      -3.81   15.66    0.43
#  56   -0.31   -0.08    0.00    0.75   -0.02    0.00    0.00       0.34    8.31   -0.22
#  57   -0.27   -0.14    0.03    0.52   -0.03    0.00    0.00       0.10    4.30   -0.28
#  58   -1.46   -0.37    0.15    0.34   -0.07    0.00    0.00      -1.41    1.18   -0.26
#  59   -0.23   -0.09    0.01    0.43   -0.02    0.00    0.00       0.10    5.11   -0.28
#  60    0.00   -0.32    0.25    0.12   -0.05    0.00    0.00       0.00    0.72   -0.28
#  61    0.05   -1.71    5.19    0.49   -0.10    0.00    0.00       3.93    1.42   -0.28
#  62   -0.07   -0.13    0.01    0.13   -0.04    0.00    0.00      -0.10    0.93   -0.26

@<TRIPOS>MOLECULE
          T531080        65
   62    65     0     0     0



@<TRIPOS>ATOM
      1 C1         -0.9097    -4.5386    94.4499 C.3        1          -0.0481
      2 N1         -0.1710    -5.5299    95.2434 N.4        1          -0.3883
      3 H1         -0.8052    -6.0096    95.8646 H          1           0.4360
      4 C2          0.8806    -4.8527    96.0318 C.3        1          -0.0087
      5 C3          2.0696    -5.8454    96.0406 C.3        1          -0.1732
      6 C4          1.9904    -6.4420    94.6107 C.3        1           0.0672
      7 C5          0.4745    -6.5039    94.3442 C.3        1          -0.0094
      8 O1          2.5648    -7.7501    94.5764 O.3        1          -0.2869
      9 C6          3.6232    -7.9374    93.7448 C.ar       1           0.1506
     10 C7          4.7817    -7.1932    93.9159 C.ar       1          -0.2011
     11 C8          5.8562    -7.3859    93.0696 C.ar       1          -0.0571
     12 C9          5.7780    -8.3196    92.0525 C.ar       1          -0.1804
     13 C10         6.9518    -8.5277    91.1306 C.3        1           0.0510
     14 N2          7.4845    -7.2236    90.7141 N.4        1          -0.3937
     15 H2          7.4776    -6.5863    91.4962 H          1           0.4309
     16 C11         6.6702    -6.6811    89.6274 C.3        1          -0.0033
     17 C12         7.6096    -6.4650    88.4345 C.3        1          -0.1623
     18 C13         8.9759    -6.2952    89.1339 C.3        1           0.1317
     19 C14         8.8557    -7.3837    90.2167 C.3        1          -0.0125
     20 N3         10.0819    -6.5788    88.2160 N.am       1          -0.7279
     21 C15        11.3512    -6.5768    88.6694 C.2        1           0.5747
     22 O2         11.5782    -6.3398    89.8398 O.2        1          -0.5083
     23 C16        12.4670    -6.8628    87.7433 C.ar       1          -0.1360
     24 C17        12.2543    -7.6547    86.6131 C.ar       1          -0.0712
     25 C18        13.2987    -7.9180    85.7522 C.ar       1          -0.1039
     26 C19        14.5575    -7.3993    86.0065 C.ar       1          -0.0013
     27 Cl1        15.8672    -7.7353    84.9178 Cl         1          -0.0206
     28 C20        14.7753    -6.6125    87.1264 C.ar       1          -0.0402
     29 Cl2        16.3563    -5.9663    87.4374 Cl         1          -0.0212
     30 C21        13.7359    -6.3375    87.9923 C.ar       1          -0.0338
     31 C22         4.6250    -9.0626    91.8802 C.ar       1          -0.0543
     32 C23         3.5492    -8.8770    92.7270 C.ar       1          -0.0945
     33 C24         2.2946    -9.6911    92.5420 C.3        1          -0.1198
     34 H3         -0.2211    -4.0230    93.7805 H          1           0.1290
     35 H4         -1.6780    -5.0423    93.8632 H          1           0.1302
     36 H5         -1.3780    -3.8151    95.1171 H          1           0.1235
     37 H6          1.1705    -3.9173    95.5531 H          1           0.1391
     38 H7          0.5329    -4.6678    97.0482 H          1           0.1453
     39 H8          3.0137    -5.3225    96.1937 H          1           0.1213
     40 H9          1.9266    -6.6192    96.7950 H          1           0.1140
     41 H10         2.4804    -5.7858    93.8915 H          1           0.1138
     42 H11         0.1034    -7.5067    94.5561 H          1           0.1486
     43 H12         0.2702    -6.2422    93.3061 H          1           0.1485
     44 H13         4.8432    -6.4637    94.7098 H          1           0.1376
     45 H14         6.7580    -6.8067    93.2021 H          1           0.1368
     46 H15         7.7284    -9.0876    91.6518 H          1           0.1408
     47 H16         6.6292    -9.0858    90.2517 H          1           0.1375
     48 H17         5.8850    -7.3888    89.3605 H          1           0.1325
     49 H18         6.2277    -5.7323    89.9306 H          1           0.1332
     50 H19         7.6132    -7.3356    87.7787 H          1           0.1179
     51 H20         7.3392    -5.5639    87.8840 H          1           0.1102
     52 H21         9.0733    -5.3039    89.5764 H          1           0.1290
     53 H22         9.5768    -7.2100    91.0154 H          1           0.1495
     54 H23         8.9941    -8.3743    89.7834 H          1           0.1396
     55 H24         9.9007    -6.7679    87.2820 H          1           0.4072
     56 H25        11.2735    -8.0605    86.4138 H          1           0.1380
     57 H26        13.1348    -8.5304    84.8778 H          1           0.1546
     58 H27        13.9054    -5.7206    88.8624 H          1           0.1588
     59 H28         4.5665    -9.7914    91.0854 H          1           0.1444
     60 H29         2.4233   -10.3705    91.6994 H          1           0.0818
     61 H30         2.0984   -10.2671    93.4464 H          1           0.0772
     62 H31         1.4545    -9.0248    92.3463 H          1           0.0759
@<TRIPOS>BOND
     1    1    2 1
     2    1   34 1
     3    1   35 1
     4    1   36 1
     5    2    3 1
     6    2    7 1
     7    2    4 1
     8    4    5 1
     9    4   37 1
    10    4   38 1
    11    5    6 1
    12    5   39 1
    13    5   40 1
    14    6    7 1
    15    6    8 1
    16    6   41 1
    17    7   42 1
    18    7   43 1
    19    8    9 1
    20    9   32 ar
    21    9   10 ar
    22   10   11 ar
    23   10   44 1
    24   11   12 ar
    25   11   45 1
    26   12   13 1
    27   12   31 ar
    28   13   14 1
    29   13   46 1
    30   13   47 1
    31   14   15 1
    32   14   19 1
    33   14   16 1
    34   16   17 1
    35   16   48 1
    36   16   49 1
    37   17   18 1
    38   17   50 1
    39   17   51 1
    40   18   19 1
    41   18   20 1
    42   18   52 1
    43   19   53 1
    44   19   54 1
    45   20   21 am
    46   20   55 1
    47   21   22 2
    48   21   23 1
    49   23   30 ar
    50   23   24 ar
    51   24   25 ar
    52   24   56 1
    53   25   26 ar
    54   25   57 1
    55   26   27 1
    56   26   28 ar
    57   28   29 1
    58   28   30 ar
    59   30   58 1
    60   31   32 ar
    61   31   59 1
    62   32   33 1
    63   33   60 1
    64   33   61 1
    65   33   62 1
##########                 Name:              T532461
##########          Protonation:                   24
##########               SMILES:   Cc1cc([nH]/c(=N\c2ccccc2)/[nH+]1)N[C@H](Cc3ccccc3)C(=O)NCCOc4ccccc4
##########            Long Name:   imino-1H-pyrimidin-3-ium-6-yl]amino]-N-(2-phenoxyethyl)-3-phenyl-propanamide
##########          FlexRecCode: 1
##########               Number:                   75
##########   Ligand Source File: /raidb/db2/rgc/tcams/tcams-0000991.db2.gz
##########           GlobalRank: 389
##########                 Rank:                    1
##########               Setnum:                  259
##########             Matchnum:                 4749
##########                Cloud:                    1
##########        Electrostatic:           -40.126404
##########        Van der Waals:           -25.444536
##########  Ligand Polar Desolv:             5.243892
########## Ligand Apolar Desolv:            -4.006718
##########      Internal Energy:             0.000000
##########      Receptor Energy: 0.0
########## Receptor Desolvation:             0.000000
########## Receptor Hydrophobic:             0.000000
##########         Total Energy: -64.33
##########        Ligand Charge:             1.000000
##########            Arbitrary:    +999.9990
##########     heavy atom count:   35
##########           pose count:    1
##########        Ligand Energy:             0.000000
# num electro vdwattr vdwrepu polsolv apolsol rdesolv rhydroe totalscore fullpol fullapo
#   1    3.99   -1.87    0.57   -2.14   -0.11    0.00    0.00       0.44   -4.09   -0.21
#   2   -7.49   -1.12    0.07    3.44   -0.31    0.00    0.00      -5.41    8.46   -0.75
#   3   12.74   -1.02    0.09   -4.35    0.36    0.00    0.00       7.83  -11.62    0.97
#   4  -14.83   -0.03    0.00    2.97    0.16    0.00    0.00     -11.74   10.75    0.58
#   5   -8.92   -0.64    0.02    2.70   -1.13    0.00    0.00      -7.97   11.03   -4.62
#   6    8.52   -0.50    0.01   -2.24    0.18    0.00    0.00       5.97  -12.25    0.98
#   7  -11.05   -0.62    0.02    2.59   -0.39    0.00    0.00      -9.45   11.89   -1.80
#   8   16.18   -0.78    0.09   -3.14    0.29    0.00    0.00      12.65  -13.77    1.26
#   9   -1.95   -0.33    0.02    0.61   -0.05    0.00    0.00      -1.70    3.27   -0.25
#  10    1.58   -0.43    0.04   -0.42   -0.05    0.00    0.00       0.72   -1.89   -0.22
#  11    1.02   -0.91    0.14   -0.39   -0.07    0.00    0.00      -0.19   -1.59   -0.28
#  12    1.55   -1.43    0.47   -0.62   -0.12    0.00    0.00      -0.15   -2.15   -0.40
#  13    1.07   -1.26    0.19   -0.73   -0.15    0.00    0.00      -0.87   -2.23   -0.47
#  14    0.53   -1.31    0.16   -0.75   -0.16    0.00    0.00      -1.53   -2.16   -0.47
#  15    0.32   -1.63    0.50   -0.68   -0.15    0.00    0.00      -1.64   -2.14   -0.47
#  16    0.47   -1.07    0.26   -0.48   -0.11    0.00    0.00      -0.93   -2.02   -0.45
#  17   -8.66   -0.44    0.02    1.36   -0.09    0.00    0.00      -7.82    8.84   -0.60
#  18    4.51   -0.19    0.00   -0.69    0.04    0.00    0.00       3.67   -7.29    0.38
#  19   20.64   -1.39    0.40   -3.36    0.60    0.00    0.00      16.90  -12.48    2.24
#  20   -2.06   -1.01    0.23    0.58   -0.14    0.00    0.00      -2.38    1.92   -0.45
#  21   -0.64   -0.92    0.27    0.16   -0.03    0.00    0.00      -1.15    0.57   -0.10
#  22    1.43   -1.65    0.79   -1.15    0.27    0.00    0.00      -0.31   -3.81    0.88
#  23   -0.62   -2.22    1.20    0.43   -0.12    0.00    0.00      -1.32    1.13   -0.31
#  24    1.59   -3.24    1.89   -0.99   -0.20    0.00    0.00      -0.95   -2.08   -0.42
#  25    1.13   -2.86    1.33   -0.52   -0.28    0.00    0.00      -1.20   -0.86   -0.47
#  26    4.54   -4.32    6.37   -0.77   -0.26    0.00    0.00       5.55   -1.41   -0.47
#  27    2.63   -2.82    1.83   -0.37   -0.21    0.00    0.00       1.06   -0.82   -0.47
#  28    3.14   -1.41    0.23   -0.58   -0.17    0.00    0.00       1.20   -1.55   -0.46
#  29    7.50   -0.85    0.03   -2.58   -0.13    0.00    0.00       3.97   -8.05   -0.40
#  30    5.88   -0.76    0.05   -2.16    0.55    0.00    0.00       3.57   -8.01    2.04
#  31   -0.19   -0.51    0.02    0.25   -0.12    0.00    0.00      -0.55    1.21   -0.58
#  32    0.36   -0.40    0.01   -0.32   -0.06    0.00    0.00      -0.41   -2.06   -0.37
#  33    0.14   -0.26    0.00   -0.11   -0.05    0.00    0.00      -0.27   -1.11   -0.47
#  34    0.14   -0.19    0.00   -0.11   -0.03    0.00    0.00      -0.19   -1.50   -0.47
#  35    0.11   -0.37    0.02   -0.16   -0.07    0.00    0.00      -0.48   -1.03   -0.47
#  36    0.15   -0.64    0.05   -0.35   -0.11    0.00    0.00      -0.90   -1.42   -0.47
#  37   -4.01   -0.66    0.19    2.10   -0.15    0.00    0.00      -2.53    3.85   -0.28
#  38   -2.41   -0.70    0.44    1.54   -0.14    0.00    0.00      -1.26    3.17   -0.28
#  39   -3.37   -1.21    1.10    2.20   -0.14    0.00    0.00      -1.42    4.26   -0.28
#  40   -4.55   -0.01    0.00    0.51    0.03    0.00    0.00      -4.01    8.06    0.43
#  41  -15.80   -0.02    0.00    1.59    0.11    0.00    0.00     -14.13    8.52    0.57
#  42   -0.88   -0.12    0.01    0.59   -0.02    0.00    0.00      -0.42    5.27   -0.20
#  43   -1.42   -0.07    0.00    0.22   -0.02    0.00    0.00      -1.29    3.35   -0.25
#  44   -2.51   -0.26    0.06    0.37   -0.06    0.00    0.00      -2.40    1.64   -0.28
#  45   -2.30   -0.34    0.11    0.43   -0.06    0.00    0.00      -2.16    1.91   -0.28
#  46   -1.44   -0.23    0.02    0.25   -0.06    0.00    0.00      -1.45    1.18   -0.28
#  47   -0.60   -0.27    0.02    0.43   -0.08    0.00    0.00      -0.49    1.55   -0.28
#  48   -0.43   -0.43    0.14    0.76   -0.08    0.00    0.00      -0.05    2.64   -0.28
#  49   -0.40   -0.16    0.04    0.52   -0.03    0.00    0.00      -0.04    4.24   -0.28
#  50  -18.98   -0.06    0.00    2.56    0.15    0.00    0.00     -16.33    9.10    0.53
#  51   -0.39   -0.13    0.01    0.09   -0.04    0.00    0.00      -0.46    0.60   -0.28
#  52   -2.63   -0.79    0.49    0.57   -0.11    0.00    0.00      -2.46    1.44   -0.28
#  53   -2.95   -0.50    0.22    0.33   -0.08    0.00    0.00      -2.97    1.13   -0.26
#  54   -0.97   -0.09    0.00    0.15   -0.02    0.00    0.00      -0.92    1.82   -0.27
#  55   -0.52   -1.07    1.43    0.90   -0.10    0.00    0.00       0.65    1.91   -0.22
#  56   -1.39   -0.48    0.09    0.73   -0.16    0.00    0.00      -1.21    1.27   -0.28
#  57   -4.20   -1.45    4.03    0.57   -0.15    0.00    0.00      -1.19    1.04   -0.28
#  58   -4.92   -0.68    0.57    0.55   -0.11    0.00    0.00      -4.58    1.47   -0.28
#  59   -2.57   -0.14    0.01    0.26   -0.04    0.00    0.00      -2.50    1.62   -0.28
#  60   -4.79   -0.21    0.01    1.32   -0.04    0.00    0.00      -3.70    6.52   -0.20
#  61   -0.57   -0.12    0.01    0.22   -0.03    0.00    0.00      -0.49    1.97   -0.28
#  62   -0.18   -0.05    0.00    0.08   -0.01    0.00    0.00      -0.16    1.72   -0.28
#  63   -0.14   -0.02    0.00    0.04   -0.01    0.00    0.00      -0.13    1.32   -0.28
#  64   -0.11   -0.09    0.01    0.13   -0.03    0.00    0.00      -0.09    1.28   -0.28
#  65   -0.17   -0.25    0.04    0.29   -0.08    0.00    0.00      -0.16    1.09   -0.28

@<TRIPOS>MOLECULE
          T532461        24
   65    68     0     0     0



@<TRIPOS>ATOM
      1 C1          2.2226    -5.2390    97.1260 C.3        1          -0.1506
      2 C2          2.3338    -5.8292    95.7438 C.2        1           0.3289
      3 N1          1.2453    -6.2133    95.1049 N.pl3      1          -0.5468
      4 H1          0.3810    -6.1114    95.5332 H          1           0.4586
      5 C3          1.3115    -6.7398    93.8783 C.2        1           0.5702
      6 N2          2.5217    -6.8975    93.2455 N.pl3      1          -0.6338
      7 C4          3.6702    -6.5105    93.8788 C.2        1           0.5642
      8 N3          4.8882    -6.6581    93.2661 N.pl3      1          -0.6439
      9 C5          5.0998    -7.7476    92.3099 C.3        1           0.1212
     10 C6          6.5685    -8.1750    92.3403 C.3        1          -0.0933
     11 C7          6.8040    -9.0795    93.5225 C.ar       1          -0.0999
     12 C8          7.1696    -8.5415    94.7423 C.ar       1          -0.1180
     13 C9          7.3856    -9.3712    95.8267 C.ar       1          -0.1158
     14 C10         7.2356   -10.7387    95.6914 C.ar       1          -0.1110
     15 C11         6.8691   -11.2765    94.4718 C.ar       1          -0.1094
     16 C12         6.6489   -10.4465    93.3886 C.ar       1          -0.1107
     17 C13         4.7425    -7.2758    90.9238 C.2        1           0.5089
     18 O1          4.3195    -8.0644    90.1051 O.2        1          -0.5221
     19 N4          4.8932    -5.9778    90.5941 N.am       1          -0.7102
     20 C14         4.5459    -5.5192    89.2467 C.3        1           0.1217
     21 C15         5.7729    -5.6274    88.3392 C.3        1           0.0431
     22 O2          5.4343    -5.1801    87.0248 O.3        1          -0.3171
     23 C16         6.4289    -4.6177    86.2891 C.ar       1           0.1212
     24 C17         6.1312    -3.6401    85.3508 C.ar       1          -0.2080
     25 C18         7.1442    -3.0696    84.6044 C.ar       1          -0.0787
     26 C19         8.4535    -3.4726    84.7914 C.ar       1          -0.1516
     27 C20         8.7526    -4.4471    85.7256 C.ar       1          -0.0794
     28 C21         7.7441    -5.0162    86.4789 C.ar       1          -0.1501
     29 C22         3.5815    -5.9608    95.1470 C.2        1          -0.3380
     30 N5          0.1980    -7.1146    93.2653 N.2        1          -0.5052
     31 C23         0.2647    -7.7763    92.0723 C.ar       1           0.0768
     32 C24         0.2726    -7.0607    90.8716 C.ar       1          -0.1682
     33 C25         0.3400    -7.7357    89.6711 C.ar       1          -0.0956
     34 C26         0.3998    -9.1183    89.6529 C.ar       1          -0.1128
     35 C27         0.3925    -9.8337    90.8375 C.ar       1          -0.0953
     36 C28         0.3311    -9.1724    92.0461 C.ar       1          -0.1016
     37 H2          1.1754    -5.2153    97.4276 H          1           0.1264
     38 H3          2.7895    -5.8498    97.8286 H          1           0.1068
     39 H4          2.6224    -4.2249    97.1211 H          1           0.1218
     40 H5          2.5606    -7.2811    92.3554 H          1           0.4469
     41 H6          5.6096    -6.0413    93.4659 H          1           0.4315
     42 H7          4.4691    -8.5948    92.5790 H          1           0.1395
     43 H8          6.8110    -8.7080    91.4210 H          1           0.1092
     44 H9          7.2020    -7.2922    92.4263 H          1           0.0960
     45 H10         7.2869    -7.4732    94.8479 H          1           0.1145
     46 H11         7.6719    -8.9510    96.7795 H          1           0.1224
     47 H12         7.4050   -11.3869    96.5384 H          1           0.1266
     48 H13         6.7522   -12.3449    94.3661 H          1           0.1300
     49 H14         6.3589   -10.8664    92.4367 H          1           0.1289
     50 H15         5.2314    -5.3471    91.2488 H          1           0.4094
     51 H16         3.7431    -6.1392    88.8476 H          1           0.0887
     52 H17         4.2162    -4.4811    89.2898 H          1           0.0990
     53 H18         6.5758    -5.0075    88.7382 H          1           0.0874
     54 H19         6.1026    -6.6654    88.2960 H          1           0.0739
     55 H20         5.1086    -3.3254    85.2038 H          1           0.1270
     56 H21         6.9129    -2.3086    83.8738 H          1           0.1275
     57 H22         9.2438    -3.0257    84.2067 H          1           0.1272
     58 H23         9.7761    -4.7604    85.8696 H          1           0.1318
     59 H24         7.9787    -5.7742    87.2115 H          1           0.1296
     60 H25         4.4724    -5.6421    95.6678 H          1           0.1899
     61 H26         0.2256    -5.9817    90.8843 H          1           0.1216
     62 H27         0.3458    -7.1841    88.7425 H          1           0.1336
     63 H28         0.4521    -9.6414    88.7095 H          1           0.1342
     64 H29         0.4390   -10.9125    90.8155 H          1           0.1370
     65 H30         0.3299    -9.7318    92.9699 H          1           0.1341
@<TRIPOS>BOND
     1    1    2 1
     2    1   37 1
     3    1   38 1
     4    1   39 1
     5    2   29 1
     6    2    3 2
     7    3    4 1
     8    3    5 1
     9    5    6 1
    10    5   30 2
    11    6    7 1
    12    6   40 1
    13    7    8 1
    14    7   29 2
    15    8    9 1
    16    8   41 1
    17    9   10 1
    18    9   17 1
    19    9   42 1
    20   10   11 1
    21   10   43 1
    22   10   44 1
    23   11   16 ar
    24   11   12 ar
    25   12   13 ar
    26   12   45 1
    27   13   14 ar
    28   13   46 1
    29   14   15 ar
    30   14   47 1
    31   15   16 ar
    32   15   48 1
    33   16   49 1
    34   17   18 2
    35   17   19 am
    36   19   20 1
    37   19   50 1
    38   20   21 1
    39   20   51 1
    40   20   52 1
    41   21   22 1
    42   21   53 1
    43   21   54 1
    44   22   23 1
    45   23   28 ar
    46   23   24 ar
    47   24   25 ar
    48   24   55 1
    49   25   26 ar
    50   25   56 1
    51   26   27 ar
    52   26   57 1
    53   27   28 ar
    54   27   58 1
    55   28   59 1
    56   29   60 1
    57   30   31 1
    58   31   36 ar
    59   31   32 ar
    60   32   33 ar
    61   32   61 1
    62   33   34 ar
    63   33   62 1
    64   34   35 ar
    65   34   63 1
    66   35   36 ar
    67   35   64 1
    68   36   65 1
##########                 Name:              T534036
##########          Protonation:                   15
##########               SMILES:   C[NH+]1CCN(CC1)CC(=O)Nc2cccc(c2)c3cccc(c3)c4[nH]c5cc(ccc5n4)F
##########            Long Name:   H-benzimidazol-2-yl)phenyl]phenyl]-2-(4-methylpiperazin-4-ium-1-yl)acetamide
##########          FlexRecCode: 1
##########               Number:                  222
##########   Ligand Source File: /raidb/db2/rgc/tcams/tcams-0001182.db2.gz
##########           GlobalRank: 389
##########                 Rank:                    1
##########               Setnum:                   62
##########             Matchnum:                 2945
##########                Cloud:                    1
##########        Electrostatic:           -44.315132
##########        Van der Waals:           -27.837353
##########  Ligand Polar Desolv:            10.615005
########## Ligand Apolar Desolv:            -2.793286
##########      Internal Energy:             0.000000
##########      Receptor Energy: 0.0
########## Receptor Desolvation:             0.000000
########## Receptor Hydrophobic:             0.000000
##########         Total Energy: -64.33
##########        Ligand Charge:             1.000000
##########            Arbitrary:    +999.9990
##########     heavy atom count:   33
##########           pose count:    1
##########        Ligand Energy:             0.000000
# num electro vdwattr vdwrepu polsolv apolsol rdesolv rhydroe totalscore fullpol fullapo
#   1    1.81   -1.32    0.28   -0.88   -0.21    0.00    0.00      -0.33   -1.85   -0.45
#   2   15.42   -1.83    1.32   -4.89    0.25    0.00    0.00      10.27  -10.95    0.57
#   3  -26.24   -0.17    0.08    6.42    0.22    0.00    0.00     -19.68   16.19    0.56
#   4    0.07   -1.30    0.22    0.17   -0.20    0.00    0.00      -1.04    0.37   -0.43
#   5   -0.80   -1.26    0.22    0.18   -0.17    0.00    0.00      -1.84    0.40   -0.39
#   6   13.02   -0.88    0.06   -3.50    0.88    0.00    0.00       9.59  -12.00    3.03
#   7   -0.67   -0.44    0.01    0.27   -0.11    0.00    0.00      -0.94    1.04   -0.42
#   8   -5.72   -0.64    0.03    1.61   -0.15    0.00    0.00      -4.87    6.78   -0.62
#   9    2.09   -1.25    0.34   -1.76    0.10    0.00    0.00      -0.49   -5.30    0.29
#  10    6.21   -0.47    0.01   -1.74    0.32    0.00    0.00       4.34   -8.87    1.65
#  11   -0.31   -0.48    0.02    0.25   -0.13    0.00    0.00      -0.64    1.31   -0.68
#  12    0.25   -0.96    0.14   -0.26   -0.12    0.00    0.00      -0.95   -0.89   -0.40
#  13    0.18   -0.93    0.15   -0.16   -0.12    0.00    0.00      -0.88   -0.61   -0.47
#  14    0.18   -0.43    0.03   -0.12   -0.07    0.00    0.00      -0.41   -0.70   -0.44
#  15    0.04   -0.28    0.01   -0.04   -0.05    0.00    0.00      -0.33   -0.32   -0.41
#  16    0.23   -0.32    0.01   -0.15   -0.06    0.00    0.00      -0.29   -1.18   -0.43
#  17    0.06   -0.24    0.00   -0.04   -0.04    0.00    0.00      -0.25   -0.37   -0.41
#  18    0.10   -0.34    0.02   -0.11   -0.07    0.00    0.00      -0.41   -0.75   -0.44
#  19    0.10   -0.66    0.15   -0.20   -0.09    0.00    0.00      -0.70   -1.08   -0.47
#  20    0.09   -0.79    0.19   -0.15   -0.09    0.00    0.00      -0.75   -0.74   -0.45
#  21    0.03   -0.44    0.02   -0.05   -0.07    0.00    0.00      -0.51   -0.30   -0.41
#  22    0.07   -0.25    0.00   -0.03   -0.04    0.00    0.00      -0.26   -0.33   -0.42
#  23   -0.42   -0.79    0.15    0.10   -0.45    0.00    0.00      -1.40    0.50   -2.13
#  24    0.70   -1.07    0.19    0.16    0.51    0.00    0.00       0.50    0.64    2.03
#  25   -0.07   -1.49    0.42   -0.02   -0.24    0.00    0.00      -1.39   -0.06   -0.79
#  26    0.08   -2.17    1.02   -0.03   -0.19    0.00    0.00      -1.29   -0.08   -0.47
#  27    0.52   -2.06    0.51   -0.16   -0.22    0.00    0.00      -1.42   -0.34   -0.47
#  28   -0.36   -2.47    0.72    0.04   -0.17    0.00    0.00      -2.23    0.08   -0.34
#  29    0.42   -2.66    1.46   -0.04   -0.27    0.00    0.00      -1.09   -0.07   -0.48
#  30    0.32   -1.89    0.48   -0.14   -0.20    0.00    0.00      -1.43   -0.32   -0.47
#  31   -0.14   -1.66    0.98    0.02   -0.24    0.00    0.00      -1.05    0.05   -0.78
#  32    0.84   -1.43    1.00   -0.46    0.25    0.00    0.00       0.20   -2.09    1.14
#  33   -0.50   -0.64    0.11    0.05   -0.09    0.00    0.00      -1.07    0.21   -0.37
#  34    0.02   -0.69    0.16    0.16   -0.11    0.00    0.00      -0.46    0.61   -0.43
#  35   -2.86   -0.27    0.05    1.10   -0.07    0.00    0.00      -2.06    4.18   -0.28
#  36   -4.15   -0.55    0.26    2.12   -0.12    0.00    0.00      -2.45    4.91   -0.28
#  37   -3.72   -0.68    0.40    1.55   -0.08    0.00    0.00      -2.53    2.88   -0.15
#  38   -3.57   -0.30    0.04    1.52   -0.07    0.00    0.00      -2.38    6.04   -0.28
#  39   -4.77   -0.88    0.55    1.76   -0.14    0.00    0.00      -3.48    3.52   -0.28
#  40   -1.84   -0.55    0.22    0.94   -0.08    0.00    0.00      -1.31    2.62   -0.21
#  41   -5.00   -0.70    0.38    1.18   -0.13    0.00    0.00      -4.27    2.60   -0.28
#  42   -1.16   -0.14    0.01    0.35   -0.04    0.00    0.00      -0.97    2.74   -0.28
#  43   -2.81   -0.16    0.01    0.49   -0.04    0.00    0.00      -2.52    3.06   -0.28
#  44   -4.92   -0.01    0.00    0.78    0.06    0.00    0.00      -4.08    7.70    0.59
#  45   -0.47   -0.29    0.06    0.24   -0.07    0.00    0.00      -0.52    0.79   -0.22
#  46   -0.22   -0.28    0.08    0.20   -0.07    0.00    0.00      -0.30    0.77   -0.28
#  47   -0.17   -0.06    0.00    0.01   -0.01    0.00    0.00      -0.23    0.28   -0.22
#  48   -0.21   -0.06    0.00    0.16   -0.01    0.00    0.00      -0.13    2.37   -0.22
#  49   -0.16   -0.07    0.00    0.19   -0.02    0.00    0.00      -0.05    2.43   -0.21
#  50   -0.11   -0.21    0.09    0.41   -0.05    0.00    0.00       0.13    2.46   -0.28
#  51   -0.11   -0.27    0.11    0.36   -0.05    0.00    0.00       0.03    1.70   -0.24
#  52   -0.19   -0.04    0.00    0.00   -0.01    0.00    0.00      -0.24    0.05   -0.20
#  53   -0.40   -0.98    1.83    0.17   -0.09    0.00    0.00       0.53    0.53   -0.28
#  54   -0.67   -0.50    0.17    0.38   -0.12    0.00    0.00      -0.73    0.88   -0.28
#  55   -0.24   -0.38    0.06    0.30   -0.10    0.00    0.00      -0.36    0.87   -0.28
#  56   -0.53   -0.02    0.00    0.51    0.08    0.00    0.00       0.04    3.56    0.53
#  57   -1.08   -0.09    0.00    0.18   -0.02    0.00    0.00      -1.00    2.13   -0.21
#  58   -5.76   -0.51    0.33    0.16   -0.05    0.00    0.00      -5.84    0.64   -0.20
#  59   -4.31   -0.22    0.05    0.53   -0.05    0.00    0.00      -4.00    2.93   -0.28
#  60   -2.50   -0.12    0.00    0.52   -0.03    0.00    0.00      -2.12    4.74   -0.28

@<TRIPOS>MOLECULE
          T534036        15
   60    64     0     0     0



@<TRIPOS>ATOM
      1 C1          6.7729    -5.4300    95.5028 C.3        1          -0.0575
      2 N1          5.6928    -5.0861    94.5684 N.4        1          -0.3859
      3 H1          6.0246    -4.3970    93.9104 H          1           0.4311
      4 C2          4.5540    -4.5386    95.3174 C.3        1          -0.0020
      5 C3          3.4340    -4.1663    94.3434 C.3        1           0.0248
      6 N2          3.0209    -5.3639    93.5988 N.3        1          -0.5215
      7 C4          2.4256    -6.3628    94.4967 C.3        1           0.0365
      8 C5          1.5892    -7.3251    93.6935 C.2        1           0.5138
      9 O1          1.4594    -8.4723    94.0653 O.2        1          -0.5044
     10 N3          0.9852    -6.9111    92.5621 N.am       1          -0.6683
     11 C6          0.2085    -7.8047    91.8162 C.ar       1           0.1366
     12 C7         -0.4629    -8.8414    92.4532 C.ar       1          -0.1150
     13 C8         -1.2312    -9.7253    91.7201 C.ar       1          -0.0967
     14 C9         -1.3362    -9.5838    90.3506 C.ar       1          -0.1134
     15 C10        -0.6664    -8.5472    89.7035 C.ar       1          -0.0234
     16 C11         0.1038    -7.6528    90.4420 C.ar       1          -0.1308
     17 C12        -0.7782    -8.3937    88.2315 C.ar       1          -0.0476
     18 C13        -1.9407    -8.7952    87.5740 C.ar       1          -0.0929
     19 C14        -2.0473    -8.6534    86.2044 C.ar       1          -0.1112
     20 C15        -1.0052    -8.1132    85.4772 C.ar       1          -0.0971
     21 C16         0.1631    -7.7071    86.1241 C.ar       1          -0.0242
     22 C17         0.2735    -7.8438    87.5066 C.ar       1          -0.0576
     23 C18         1.2796    -7.1290    85.3447 C.2        1           0.3249
     24 N4          2.1366    -6.2471    85.7964 N.2        1          -0.4702
     25 C19         3.0256    -5.9350    84.8218 C.ar       1           0.0395
     26 C20         4.1239    -5.0706    84.7645 C.ar       1          -0.0297
     27 C21         4.8487    -4.9656    83.6120 C.ar       1          -0.1556
     28 C22         4.5070    -5.7109    82.4895 C.ar       1           0.1254
     29 F1          5.2362    -5.5936    81.3583 F          1          -0.1302
     30 C23         3.4272    -6.5708    82.5236 C.ar       1          -0.1512
     31 C24         2.6791    -6.6895    83.6868 C.ar       1           0.0794
     32 N5          1.5762    -7.4395    84.0445 N.pl3      1          -0.5917
     33 C25         4.1565    -5.9316    92.8587 C.3        1           0.0174
     34 C26         5.2712    -6.2919    93.8431 C.3        1          -0.0007
     35 H2          6.4151    -6.1745    96.2139 H          1           0.1261
     36 H3          7.6187    -5.8351    94.9472 H          1           0.1261
     37 H4          7.0867    -4.5352    96.0405 H          1           0.1184
     38 H5          4.1892    -5.2863    96.0218 H          1           0.1379
     39 H6          4.8714    -3.6500    95.8630 H          1           0.1405
     40 H7          2.5837    -3.7723    94.8999 H          1           0.0640
     41 H8          3.7948    -3.4104    93.6458 H          1           0.1248
     42 H9          3.2178    -6.9093    95.0083 H          1           0.0796
     43 H10         1.7967    -5.8611    95.2322 H          1           0.1222
     44 H11         1.0888    -5.9936    92.2648 H          1           0.4130
     45 H12        -0.3837    -8.9566    93.5242 H          1           0.1362
     46 H13        -1.7508   -10.5296    92.2196 H          1           0.1320
     47 H14        -1.9373   -10.2769    89.7807 H          1           0.1335
     48 H15         0.6215    -6.8454    89.9455 H          1           0.1302
     49 H16        -2.7592    -9.2184    88.1371 H          1           0.1296
     50 H17        -2.9494    -8.9665    85.6999 H          1           0.1349
     51 H18        -1.0939    -8.0050    84.4064 H          1           0.1242
     52 H19         1.1737    -7.5276    88.0125 H          1           0.1448
     53 H20         4.3980    -4.4866    85.6307 H          1           0.1440
     54 H21         5.6957    -4.2968    83.5720 H          1           0.1470
     55 H22         3.1657    -7.1484    81.6493 H          1           0.1390
     56 H23         1.0992    -8.0675    83.4795 H          1           0.4259
     57 H24         3.8343    -6.8284    92.3295 H          1           0.0588
     58 H25         4.5265    -5.1987    92.1417 H          1           0.1381
     59 H26         6.1200    -6.7023    93.2963 H          1           0.1414
     60 H27         4.9037    -7.0329    94.5530 H          1           0.1367
@<TRIPOS>BOND
     1    1    2 1
     2    1   35 1
     3    1   36 1
     4    1   37 1
     5    2    3 1
     6    2   34 1
     7    2    4 1
     8    4    5 1
     9    4   38 1
    10    4   39 1
    11    5    6 1
    12    5   40 1
    13    5   41 1
    14    6    7 1
    15    6   33 1
    16    7    8 1
    17    7   42 1
    18    7   43 1
    19    8    9 2
    20    8   10 am
    21   10   11 1
    22   10   44 1
    23   11   16 ar
    24   11   12 ar
    25   12   13 ar
    26   12   45 1
    27   13   14 ar
    28   13   46 1
    29   14   15 ar
    30   14   47 1
    31   15   16 ar
    32   15   17 1
    33   16   48 1
    34   17   22 ar
    35   17   18 ar
    36   18   19 ar
    37   18   49 1
    38   19   20 ar
    39   19   50 1
    40   20   21 ar
    41   20   51 1
    42   21   22 ar
    43   21   23 1
    44   22   52 1
    45   23   32 1
    46   23   24 2
    47   24   25 1
    48   25   31 ar
    49   25   26 ar
    50   26   27 ar
    51   26   53 1
    52   27   28 ar
    53   27   54 1
    54   28   29 1
    55   28   30 ar
    56   30   31 ar
    57   30   55 1
    58   31   32 1
    59   32   56 1
    60   33   34 1
    61   33   57 1
    62   33   58 1
    63   34   59 1
    64   34   60 1
##########                 Name:              T540710
##########          Protonation:                   99
##########               SMILES:   c1cc2c(ccc(c2nc1)O)CCCOCCCCC[NH2+]C[C@H](c3cc(c(c(c3)Cl)N)Cl)O
##########            Long Name:   phenyl)-2-hydroxy-ethyl]-[5-[3-(8-hydroxy-5-quinolyl)propoxy]pentyl]ammonium
##########          FlexRecCode: 1
##########               Number:                  277
##########   Ligand Source File: /raidb/db2/rgc/tcams/tcams-0002008.db2.gz
##########           GlobalRank: 389
##########                 Rank:                    1
##########               Setnum:                  399
##########             Matchnum:                 4937
##########                Cloud:                    1
##########        Electrostatic:           -41.810078
##########        Van der Waals:           -27.387171
##########  Ligand Polar Desolv:             5.335979
########## Ligand Apolar Desolv:            -0.465016
##########      Internal Energy:             0.000000
##########      Receptor Energy: 0.0
########## Receptor Desolvation:             0.000000
########## Receptor Hydrophobic:             0.000000
##########         Total Energy: -64.33
##########        Ligand Charge:             1.000000
##########            Arbitrary:    +999.9990
##########     heavy atom count:   33
##########           pose count:    1
##########        Ligand Energy:             0.000000
# num electro vdwattr vdwrepu polsolv apolsol rdesolv rhydroe totalscore fullpol fullapo
#   1    6.01   -2.00    0.49   -4.51    0.49    0.00    0.00       0.49   -8.05    0.88
#   2   -1.92   -1.47    0.23    0.86   -0.31    0.00    0.00      -2.60    2.03   -0.73
#   3    1.26   -1.56    0.26   -0.86   -0.13    0.00    0.00      -1.03   -1.92   -0.30
#   4    0.75   -5.54    3.87   -0.60   -0.54    0.00    0.00      -2.06   -1.05   -0.94
#   5    0.44   -1.47    0.22   -0.26   -0.17    0.00    0.00      -1.24   -0.67   -0.44
#   6    2.30   -1.30    0.25   -0.95   -0.11    0.00    0.00       0.19   -2.96   -0.35
#   7    0.26   -1.18    0.18   -0.20   -0.13    0.00    0.00      -1.07   -0.68   -0.42
#   8    0.57   -1.27    0.13   -0.71   -0.11    0.00    0.00      -1.38   -1.95   -0.30
#   9    0.27   -4.17    2.34   -0.44   -0.39    0.00    0.00      -2.40   -1.07   -0.94
#  10   -2.98   -0.82    0.16    1.35   -0.04    0.00    0.00      -2.33    4.35   -0.14
#  11   15.63   -2.39    1.40   -6.75    0.72    0.00    0.00       8.61  -15.39    1.64
#  12    0.82   -0.51    0.02   -0.15   -0.10    0.00    0.00       0.09   -0.55   -0.37
#  13   15.89   -0.95    0.17   -6.15    0.25    0.00    0.00       9.22  -17.71    0.73
#  14  -15.35   -0.02    0.00    4.86    0.15    0.00    0.00     -10.36   16.95    0.54
#  15  -17.20   -0.03    0.00    3.53    0.11    0.00    0.00     -13.58   17.60    0.57
#  16    0.27   -0.62    0.03    0.24   -0.14    0.00    0.00      -0.23    0.69   -0.40
#  17    2.70   -0.38    0.01   -0.93   -0.05    0.00    0.00       1.34   -4.23   -0.24
#  18    2.21   -0.41    0.02   -0.56   -0.05    0.00    0.00       1.22   -2.60   -0.22
#  19    1.02   -0.24    0.01   -0.29   -0.03    0.00    0.00       0.47   -2.03   -0.24
#  20   -0.38   -0.24    0.01    0.08   -0.02    0.00    0.00      -0.55    0.50   -0.12
#  21    3.94   -0.26    0.00   -0.60    0.19    0.00    0.00       3.27   -4.19    1.33
#  22   -0.38   -0.22    0.01    0.10   -0.02    0.00    0.00      -0.51    0.69   -0.12
#  23    1.40   -0.26    0.01   -0.15   -0.04    0.00    0.00       0.96   -0.97   -0.24
#  24    0.56   -0.32    0.02   -0.13   -0.04    0.00    0.00       0.10   -0.71   -0.20
#  25    0.98   -0.64    0.06   -0.08   -0.08    0.00    0.00       0.24   -0.38   -0.36
#  26    2.21   -1.02    0.08   -0.23   -0.16    0.00    0.00       0.88   -0.66   -0.45
#  27    3.61   -1.47    0.28   -0.15   -0.18    0.00    0.00       2.09   -0.39   -0.46
#  28   -1.94   -0.96    0.12   -0.04   -0.09    0.00    0.00      -2.91   -0.13   -0.31
#  29    4.12   -1.31    0.46    0.13    0.35    0.00    0.00       3.75    0.42    1.16
#  30   -0.38   -0.47    0.03   -0.02   -0.14    0.00    0.00      -0.98   -0.11   -0.73
#  31    0.92   -0.26    0.01    0.08    0.23    0.00    0.00       0.98    0.63    1.95
#  32   -0.20   -0.16    0.00    0.02   -0.07    0.00    0.00      -0.41    0.27   -0.97
#  33    0.28   -0.16    0.01   -0.09   -0.04    0.00    0.00       0.00   -1.10   -0.47
#  34    0.20   -0.28    0.03   -0.04   -0.04    0.00    0.00      -0.13   -0.38   -0.43
#  35    0.63   -0.49    0.06   -0.06   -0.06    0.00    0.00       0.09   -0.42   -0.40
#  36   -3.07   -0.03    0.00    1.67    0.23    0.00    0.00      -1.19    3.63    0.50
#  37   -3.13   -0.04    0.00    1.71    0.24    0.00    0.00      -1.22    3.56    0.50
#  38   -2.45   -0.31    0.04    1.18   -0.08    0.00    0.00      -1.63    4.02   -0.28
#  39   -0.71   -0.19    0.02    0.71   -0.04    0.00    0.00      -0.20    4.55   -0.24
#  40   -2.80   -0.23    0.05    0.94   -0.05    0.00    0.00      -2.10    4.94   -0.28
#  41  -15.50   -0.04    0.00    5.19    0.45    0.00    0.00      -9.90   11.70    1.01
#  42   -1.56   -0.15    0.02    0.71   -0.03    0.00    0.00      -1.02    6.01   -0.28
#  43   -2.02   -0.17    0.01    0.99   -0.05    0.00    0.00      -1.23    5.82   -0.28
#  44   -3.20   -0.21    0.01    1.05   -0.06    0.00    0.00      -2.41    5.31   -0.28
#  45   -4.15   -0.28    0.02    1.52   -0.08    0.00    0.00      -2.97    5.19   -0.28
#  46   -0.90   -0.13    0.01    0.31   -0.03    0.00    0.00      -0.74    2.65   -0.28
#  47   -1.68   -0.11    0.00    0.26   -0.03    0.00    0.00      -1.56    2.78   -0.28
#  48   -1.75   -0.24    0.04    0.40   -0.06    0.00    0.00      -1.62    1.84   -0.28
#  49   -1.83   -0.12    0.01    0.23   -0.04    0.00    0.00      -1.76    1.79   -0.28
#  50   -0.36   -0.07    0.00    0.06   -0.02    0.00    0.00      -0.39    0.79   -0.28
#  51   -0.49   -0.07    0.00    0.06   -0.02    0.00    0.00      -0.51    0.84   -0.28
#  52   -0.13   -0.04    0.00    0.03   -0.01    0.00    0.00      -0.14    0.81   -0.28
#  53   -0.24   -0.15    0.02    0.11   -0.04    0.00    0.00      -0.30    0.76   -0.28
#  54   -0.17   -0.03    0.00    0.03   -0.01    0.00    0.00      -0.18    0.85   -0.28
#  55   -0.16   -0.12    0.01    0.10   -0.04    0.00    0.00      -0.20    0.78   -0.28
#  56   -1.71   -0.17    0.02    0.07   -0.05    0.00    0.00      -1.84    0.44   -0.28
#  57   -0.86   -0.04    0.00    0.02   -0.01    0.00    0.00      -0.89    0.43   -0.28
#  58   -0.27   -0.07    0.00    0.08   -0.02    0.00    0.00      -0.27    1.18   -0.23
#  59   -0.34   -0.14    0.01    0.17   -0.04    0.00    0.00      -0.34    1.32   -0.28
#  60   -3.75   -0.29    0.04    0.52   -0.08    0.00    0.00      -3.57    1.75   -0.28
#  61   -5.28   -0.65    0.35    0.32   -0.11    0.00    0.00      -5.36    0.82   -0.28
#  62  -11.01   -0.09    0.02    0.42    0.38    0.00    0.00     -10.29    1.33    1.22
#  63   -0.19   -0.02    0.00    0.03   -0.01    0.00    0.00      -0.19    1.09   -0.28
#  64   -0.17   -0.02    0.00    0.05   -0.01    0.00    0.00      -0.15    2.13   -0.28
#  65   -0.41   -0.04    0.00    0.10   -0.01    0.00    0.00      -0.36    2.12   -0.22

@<TRIPOS>MOLECULE
          T540710        99
   65    67     0     0     0



@<TRIPOS>ATOM
      1 N1          8.2181   -11.8616    97.8807 N.pl3      1          -0.8495
      2 C1          7.8629   -10.7620    97.0932 C.ar       1           0.2621
      3 C2          7.9720    -9.4747    97.6049 C.ar       1          -0.1100
      4 Cl1         8.5502    -9.2288    99.2232 Cl         1          -0.0406
      5 C3          7.6198    -8.3902    96.8237 C.ar       1          -0.0321
      6 C4          7.1595    -8.5850    95.5344 C.ar       1          -0.1885
      7 C5          7.0493    -9.8646    95.0220 C.ar       1          -0.0391
      8 C6          7.4054   -10.9536    95.7952 C.ar       1          -0.1090
      9 Cl2         7.2739   -12.5592    95.1482 Cl         1          -0.0413
     10 C7          6.7767    -7.4000    94.6858 C.3        1           0.1467
     11 O1          7.5648    -6.2693    95.0635 O.3        1          -0.5462
     12 C8          5.2948    -7.0811    94.8938 C.3        1          -0.0448
     13 N2          5.0283    -5.6980    94.4765 N.4        1          -0.5064
     14 H1          5.5891    -5.0662    95.0285 H          1           0.4327
     15 H2          5.2618    -5.5901    93.5009 H          1           0.4295
     16 C9          3.6056    -5.3918    94.6765 C.3        1          -0.0101
     17 C10         2.7553    -6.3498    93.8397 C.3        1          -0.1492
     18 C11         3.1093    -6.1863    92.3602 C.3        1          -0.1151
     19 C12         2.2590    -7.1443    91.5235 C.3        1          -0.1208
     20 C13         2.6129    -6.9808    90.0440 C.3        1           0.0605
     21 O2          3.9970    -7.2785    89.8495 O.3        1          -0.3888
     22 C14         4.4331    -7.1554    88.4943 C.3        1           0.0631
     23 C15         5.9548    -6.9991    88.4604 C.3        1          -0.1143
     24 C16         6.4217    -6.8673    87.0094 C.3        1          -0.0786
     25 C17         7.9204    -6.7132    86.9761 C.ar       1          -0.0738
     26 C18         8.4819    -5.4736    87.0346 C.ar       1          -0.0940
     27 C19         9.8642    -5.3120    87.0045 C.ar       1          -0.1311
     28 C20        10.6970    -6.3911    86.9159 C.ar       1           0.1360
     29 O3         12.0435    -6.2141    86.8882 O.3        1          -0.4809
     30 C21        10.1512    -7.6902    86.8538 C.ar       1           0.1018
     31 N3         10.9389    -8.7659    86.7673 N.ar       1          -0.4589
     32 C22        10.4368    -9.9753    86.7097 C.ar       1           0.1281
     33 C23         9.0620   -10.2003    86.7352 C.ar       1          -0.1677
     34 C24         8.2002    -9.1444    86.8228 C.ar       1          -0.0640
     35 C25         8.7439    -7.8473    86.8903 C.ar       1          -0.0828
     36 H3          8.1471   -12.7593    97.5202 H          1           0.4116
     37 H4          8.5392   -11.7263    98.7859 H          1           0.4118
     38 H5          7.7040    -7.3893    97.2207 H          1           0.1439
     39 H6          6.6891   -10.0131    94.0147 H          1           0.1378
     40 H7          6.9546    -7.6324    93.6358 H          1           0.1324
     41 H8          7.3714    -5.4683    94.5573 H          1           0.3885
     42 H9          4.6893    -7.7636    94.2976 H          1           0.1453
     43 H10         5.0426    -7.1977    95.9477 H          1           0.1370
     44 H11         3.3535    -5.5084    95.7305 H          1           0.1326
     45 H12         3.4077    -4.3656    94.3669 H          1           0.1320
     46 H13         2.9533    -7.3761    94.1492 H          1           0.0902
     47 H14         1.6997    -6.1228    93.9880 H          1           0.0901
     48 H15         2.9113    -5.1600    92.0506 H          1           0.0765
     49 H16         4.1649    -6.4133    92.2119 H          1           0.0765
     50 H17         2.4570    -8.1705    91.8331 H          1           0.0759
     51 H18         1.2033    -6.9173    91.6717 H          1           0.0757
     52 H19         2.0072    -7.6632    89.4479 H          1           0.0499
     53 H20         2.4150    -5.9544    89.7344 H          1           0.0501
     54 H21         4.1472    -8.0481    87.9381 H          1           0.0511
     55 H22         3.9677    -6.2803    88.0409 H          1           0.0524
     56 H23         6.2407    -6.1063    89.0167 H          1           0.0758
     57 H24         6.4200    -7.8743    88.9138 H          1           0.0732
     58 H25         6.1357    -7.7599    86.4532 H          1           0.0779
     59 H26         5.9564    -5.9920    86.5561 H          1           0.0814
     60 H27         7.8456    -4.6039    87.1049 H          1           0.1327
     61 H28        10.2845    -4.3182    87.0515 H          1           0.1389
     62 H29        12.3197    -5.2887    86.9359 H          1           0.3938
     63 H30        11.1065   -10.8198    86.6402 H          1           0.1624
     64 H31         8.6782   -11.2085    86.6855 H          1           0.1399
     65 H32         7.1317    -9.3001    86.8433 H          1           0.1398
@<TRIPOS>BOND
     1    1    2 1
     2    1   36 1
     3    1   37 1
     4    2    8 ar
     5    2    3 ar
     6    3    4 1
     7    3    5 ar
     8    5    6 ar
     9    5   38 1
    10    6    7 ar
    11    6   10 1
    12    7    8 ar
    13    7   39 1
    14    8    9 1
    15   10   11 1
    16   10   12 1
    17   10   40 1
    18   11   41 1
    19   12   13 1
    20   12   42 1
    21   12   43 1
    22   13   14 1
    23   13   15 1
    24   13   16 1
    25   16   17 1
    26   16   44 1
    27   16   45 1
    28   17   18 1
    29   17   46 1
    30   17   47 1
    31   18   19 1
    32   18   48 1
    33   18   49 1
    34   19   20 1
    35   19   50 1
    36   19   51 1
    37   20   21 1
    38   20   52 1
    39   20   53 1
    40   21   22 1
    41   22   23 1
    42   22   54 1
    43   22   55 1
    44   23   24 1
    45   23   56 1
    46   23   57 1
    47   24   25 1
    48   24   58 1
    49   24   59 1
    50   25   35 ar
    51   25   26 ar
    52   26   27 ar
    53   26   60 1
    54   27   28 ar
    55   27   61 1
    56   28   29 1
    57   28   30 ar
    58   29   62 1
    59   30   35 ar
    60   30   31 ar
    61   31   32 ar
    62   32   33 ar
    63   32   63 1
    64   33   34 ar
    65   33   64 1
    66   34   35 ar
    67   34   65 1
##########                 Name:              T535649
##########          Protonation:                   12
##########               SMILES:   Cc1c(sc(c1Br)Br)C[NH2+]CCC/[NH+]=c\2/[nH]c3ccncc3[nH]2
##########            Long Name:   methyl-[3-(1,3-dihydroimidazo[4,5-c]pyridin-2-ylideneammonio)propyl]ammonium
##########          FlexRecCode: 1
##########               Number:                    1
##########   Ligand Source File: /raidb/db2/rgc/tcams/tcams-0001386.db2.gz
##########           GlobalRank: 390
##########                 Rank:                    1
##########               Setnum:                   78
##########             Matchnum:                 3319
##########                Cloud:                    1
##########        Electrostatic:           -61.257351
##########        Van der Waals:           -19.424528
##########  Ligand Polar Desolv:            18.625055
########## Ligand Apolar Desolv:            -2.241878
##########      Internal Energy:             0.000000
##########      Receptor Energy: 0.0
########## Receptor Desolvation:             0.000000
########## Receptor Hydrophobic:             0.000000
##########         Total Energy: -64.3
##########        Ligand Charge:             2.000000
##########            Arbitrary:    +999.9990
##########     heavy atom count:   23
##########           pose count:    1
##########        Ligand Energy:             0.000000
# num electro vdwattr vdwrepu polsolv apolsol rdesolv rhydroe totalscore fullpol fullapo
#   1    1.93   -1.01    0.60   -0.89   -0.04    0.00    0.00       0.60   -3.96   -0.19
#   2    0.22   -0.37    0.02   -0.52   -0.06    0.00    0.00      -0.71   -3.33   -0.40
#   3    4.69   -0.40    0.02   -0.52   -0.04    0.00    0.00       3.75   -3.43   -0.29
#   4   -3.45   -1.24    0.84    1.31   -0.11    0.00    0.00      -2.65    4.99   -0.43
#   5   20.28   -2.24    3.47   -7.02    0.20    0.00    0.00      14.70  -25.71    0.73
#   6  -14.25   -0.02    0.00    3.96    0.09    0.00    0.00     -10.21   24.05    0.57
#   7  -26.93   -0.22    0.13    7.60    0.18    0.00    0.00     -19.24   23.70    0.57
#   8    0.15   -0.50    0.05    0.02   -0.09    0.00    0.00      -0.37    0.09   -0.40
#   9    3.73   -0.46    0.02   -2.12   -0.06    0.00    0.00       1.12   -8.74   -0.24
#  10   -1.37   -0.36    0.01    0.57   -0.08    0.00    0.00      -1.23    2.85   -0.41
#  11   13.14   -0.75    0.03   -7.98    0.48    0.00    0.00       4.93  -27.16    1.64
#  12  -10.14   -0.01    0.00    3.38    0.09    0.00    0.00      -6.69   22.12    0.57
#  13  -15.40   -1.09    0.09   10.36   -1.79    0.00    0.00      -7.85   28.56   -4.95
#  14   16.87   -2.20    0.60   -9.78    0.55    0.00    0.00       6.03  -21.53    1.20
#  15   -3.12   -1.90    0.25    2.09   -0.42    0.00    0.00      -3.09    3.90   -0.78
#  16    3.32   -2.71    0.51   -2.44   -0.31    0.00    0.00      -1.63   -3.79   -0.48
#  17   -3.46   -3.11    0.94    0.72   -0.68    0.00    0.00      -5.59    1.05   -0.98
#  18   10.37   -2.92    0.74   -7.34    1.32    0.00    0.00       2.16  -11.38    2.04
#  19   -3.88   -2.99    1.63    1.68   -0.56    0.00    0.00      -4.12    2.92   -0.98
#  20   -0.34   -1.52    0.14    0.78   -0.39    0.00    0.00      -1.34    1.56   -0.78
#  21    9.87   -1.28    0.17   -8.24    0.45    0.00    0.00       0.96  -21.47    1.16
#  22   -1.29   -0.28    0.00    0.38   -0.06    0.00    0.00      -1.23    5.40   -0.82
#  23    0.24   -0.19    0.01   -0.39   -0.01    0.00    0.00      -0.35   -4.87   -0.18
#  24   -0.04   -0.43    0.04   -0.05   -0.08    0.00    0.00      -0.56   -0.76   -1.10
#  25    0.69   -0.26    0.01   -0.23   -0.03    0.00    0.00       0.18   -2.08   -0.29
#  26   -0.12   -1.04    0.08   -0.27   -0.16    0.00    0.00      -1.51   -1.73   -1.03
#  27   -2.02   -0.49    0.36    1.09   -0.07    0.00    0.00      -1.14    4.21   -0.28
#  28   -0.95   -0.30    0.17    1.05   -0.04    0.00    0.00      -0.07    6.16   -0.23
#  29   -1.11   -0.40    0.37   -0.01   -0.04    0.00    0.00      -1.20   -0.05   -0.23
#  30   -5.95   -0.62    0.61    2.78   -0.08    0.00    0.00      -3.26    9.90   -0.28
#  31   -5.29   -0.37    0.14    2.38   -0.05    0.00    0.00      -3.20   10.76   -0.24
#  32   -3.21   -0.19    0.02    1.88   -0.06    0.00    0.00      -1.56    9.45   -0.28
#  33   -2.00   -0.07    0.00    0.61   -0.02    0.00    0.00      -1.48    9.92   -0.28
#  34   -2.13   -0.10    0.00    0.59   -0.03    0.00    0.00      -1.67    6.39   -0.28
#  35   -3.23   -0.24    0.03    1.44   -0.07    0.00    0.00      -2.06    6.15   -0.28
#  36   -1.21   -0.15    0.02    0.92   -0.04    0.00    0.00      -0.46    6.89   -0.28
#  37   -0.90   -0.07    0.00    0.46   -0.02    0.00    0.00      -0.53    7.05   -0.28
#  38  -17.77   -0.08    0.01    7.89    0.25    0.00    0.00      -9.70   18.69    0.59
#  39   -4.13   -0.75    0.21    3.19   -0.18    0.00    0.00      -1.65    5.05   -0.28
#  40   -4.55   -1.06    0.66    1.87   -0.17    0.00    0.00      -3.25    3.07   -0.28
#  41   -3.87   -1.59    3.61    2.69   -0.13    0.00    0.00       0.71    5.61   -0.28
#  42   -4.64   -0.03    0.00    4.72    0.13    0.00    0.00       0.18   20.71    0.57

@<TRIPOS>MOLECULE
          T535649        12
   42    44     0     0     0



@<TRIPOS>ATOM
      1 C1          7.9261    -8.5949    92.1488 C.3        1          -0.1321
      2 C2          6.7922    -8.8543    91.1904 C.2        1          -0.0185
      3 C3          6.0676    -7.8252    90.6877 C.2        1          -0.2801
      4 C4          6.2140    -6.3474    90.9441 C.3        1           0.1021
      5 N1          5.3829    -5.9652    92.0936 N.4        1          -0.5123
      6 H1          5.6803    -6.4792    92.9093 H          1           0.4325
      7 H2          5.4808    -4.9757    92.2652 H          1           0.4324
      8 C5          3.9762    -6.2755    91.8053 C.3        1          -0.0063
      9 C6          3.1105    -5.8774    93.0025 C.3        1          -0.1691
     10 C7          1.6455    -6.2005    92.7024 C.3        1           0.0970
     11 N2          0.8166    -5.8194    93.8487 N.pl3      1          -0.6501
     12 H3          0.9729    -6.2243    94.7161 H          1           0.4461
     13 C8         -0.1328    -4.9345    93.7026 C.cat      1           0.6720
     14 N3         -0.9713    -4.4901    94.6951 N.pl3      1          -0.5764
     15 C9         -1.8376    -3.5567    94.1454 C.ar       1           0.1276
     16 C10        -2.8776    -2.7886    94.6563 C.ar       1          -0.1363
     17 C11        -3.5535    -1.9342    93.8082 C.ar       1           0.1455
     18 N4         -3.2258    -1.8407    92.5327 N.ar       1          -0.4403
     19 C12        -2.2457    -2.5510    92.0063 C.ar       1           0.1662
     20 C13        -1.5183    -3.4314    92.7893 C.ar       1           0.0152
     21 N5         -0.4527    -4.2913    92.5330 N.pl3      1          -0.5676
     22 S1          4.8952    -8.6739    89.6426 S.3        1           0.1906
     23 C14         5.4495   -10.3436    89.9458 C.2        1          -0.1040
     24 Br1         4.7802   -11.9666    89.2431 Br         1           0.1054
     25 C15         6.4794   -10.1455    90.8064 C.2        1          -0.1240
     26 Br2         7.4670   -11.6125    91.4761 Br         1           0.0227
     27 H4          8.0139    -7.5230    92.3261 H          1           0.0892
     28 H5          7.7283    -9.1041    93.0919 H          1           0.0791
     29 H6          8.8560    -8.9699    91.7214 H          1           0.0969
     30 H7          7.2577    -6.1174    91.1580 H          1           0.1512
     31 H8          5.8927    -5.7921    90.0628 H          1           0.1554
     32 H9          3.6548    -5.7202    90.9241 H          1           0.1446
     33 H10         3.8704    -7.3443    91.6199 H          1           0.1448
     34 H11         3.4320    -6.4327    93.8838 H          1           0.1100
     35 H12         3.2163    -4.8086    93.1880 H          1           0.1100
     36 H13         1.3241    -5.6453    91.8212 H          1           0.1092
     37 H14         1.5398    -7.2694    92.5170 H          1           0.1092
     38 H15        -0.9598    -4.7790    95.6211 H          1           0.4621
     39 H16        -3.1522    -2.8594    95.6982 H          1           0.1665
     40 H17        -4.3634    -1.3330    94.1942 H          1           0.1923
     41 H18        -2.0097    -2.4450    90.9578 H          1           0.1831
     42 H19        -0.0145    -4.4155    91.6766 H          1           0.4583
@<TRIPOS>BOND
     1    1    2 1
     2    1   27 1
     3    1   28 1
     4    1   29 1
     5    2   25 1
     6    2    3 2
     7    3    4 1
     8    3   22 1
     9    4    5 1
    10    4   30 1
    11    4   31 1
    12    5    6 1
    13    5    7 1
    14    5    8 1
    15    8    9 1
    16    8   32 1
    17    8   33 1
    18    9   10 1
    19    9   34 1
    20    9   35 1
    21   10   11 1
    22   10   36 1
    23   10   37 1
    24   11   12 1
    25   11   13 2
    26   13   21 1
    27   13   14 1
    28   14   15 1
    29   14   38 1
    30   15   20 ar
    31   15   16 ar
    32   16   17 ar
    33   16   39 1
    34   17   18 ar
    35   17   40 1
    36   18   19 ar
    37   19   20 ar
    38   19   41 1
    39   20   21 1
    40   21   42 1
    41   22   23 1
    42   23   24 1
    43   23   25 2
    44   25   26 1
##########                 Name:              T530690
##########          Protonation:                   37
##########               SMILES:   c1cc(cc(c1)c2ccc(s2)c3[nH]c4cc(ccc4n3)C(F)(F)F)C[NH2+]CCN5CC[NH2+]CC5
##########            Long Name:   -[6-(trifluoromethyl)-1H-benzimidazol-2-yl]-2-thienyl]phenyl]methyl]ammonium
##########          FlexRecCode: 1
##########               Number:                  170
##########   Ligand Source File: /raidb/db2/rgc/tcams/tcams-0000721.db2.gz
##########           GlobalRank: 392
##########                 Rank:                    1
##########               Setnum:                   33
##########             Matchnum:                 3632
##########                Cloud:                    1
##########        Electrostatic:           -61.129967
##########        Van der Waals:           -20.836023
##########  Ligand Polar Desolv:            19.809317
########## Ligand Apolar Desolv:            -2.136613
##########      Internal Energy:             0.000000
##########      Receptor Energy: 0.0
########## Receptor Desolvation:             0.000000
########## Receptor Hydrophobic:             0.000000
##########         Total Energy: -64.29
##########        Ligand Charge:             2.000000
##########            Arbitrary:    +999.9990
##########     heavy atom count:   34
##########           pose count:    1
##########        Ligand Energy:             0.000000
# num electro vdwattr vdwrepu polsolv apolsol rdesolv rhydroe totalscore fullpol fullapo
#   1    0.01   -0.22    0.01   -0.19   -0.07    0.00    0.00      -0.46   -1.36   -0.48
#   2   -0.02   -0.14    0.00    0.31   -0.01    0.00    0.00       0.15    4.19   -0.07
#   3    0.00   -0.10    0.00   -0.11   -0.03    0.00    0.00      -0.25   -1.54   -0.45
#   4    0.00   -0.04    0.00   -0.03   -0.01    0.00    0.00      -0.08   -1.26   -0.45
#   5    0.01   -0.36    0.02   -0.21   -0.05    0.00    0.00      -0.60   -1.75   -0.38
#   6   -0.01   -0.24    0.01   -0.06   -0.03    0.00    0.00      -0.33   -0.70   -0.44
#   7   -0.01   -0.36    0.05   -0.07   -0.05    0.00    0.00      -0.45   -0.74   -0.47
#   8    0.05   -1.01    0.49    0.02   -0.13    0.00    0.00      -0.58    0.14   -0.79
#   9   -0.45   -1.04    0.45   -0.62    0.37    0.00    0.00      -1.30   -3.59    2.13
#  10   -1.11   -1.93    1.20    1.01   -0.53    0.00    0.00      -1.35    4.22   -2.19
#  11    5.41   -4.10    4.30   -2.23    0.35    0.00    0.00       3.74   -7.51    1.18
#  12   -0.07   -1.70    0.90    0.09   -0.19    0.00    0.00      -0.98    0.35   -0.78
#  13    0.02   -0.92    0.12   -0.07   -0.11    0.00    0.00      -0.96   -0.30   -0.44
#  14    0.76   -1.21    0.29   -0.84   -0.08    0.00    0.00      -1.07   -3.49   -0.32
#  15    0.91   -1.09    0.30   -0.24   -0.12    0.00    0.00      -0.23   -0.96   -0.47
#  16    0.68   -0.97    0.16   -0.94   -0.11    0.00    0.00      -1.18   -3.78   -0.46
#  17    0.86   -0.79    0.09   -0.17   -0.08    0.00    0.00      -0.09   -0.70   -0.31
#  18   -0.62   -1.80    0.61    1.52   -0.21    0.00    0.00      -0.49    5.92   -0.81
#  19   -0.10   -1.03    0.19   -0.52   -0.10    0.00    0.00      -1.57   -2.08   -0.41
#  20    0.30   -1.29    0.20   -0.87   -0.15    0.00    0.00      -1.81   -2.70   -0.46
#  21    0.69   -1.32    0.19   -1.44   -0.16    0.00    0.00      -2.03   -4.23   -0.47
#  22    1.17   -0.95    0.08   -0.56   -0.14    0.00    0.00      -0.40   -1.80   -0.45
#  23    2.78   -0.91    0.11   -1.00   -0.10    0.00    0.00       0.88   -3.76   -0.37
#  24   -1.59   -0.97    0.48    0.94   -0.11    0.00    0.00      -1.26    3.43   -0.42
#  25   12.90   -0.65    0.10   -5.33    0.16    0.00    0.00       7.18  -24.09    0.73
#  26   -7.38   -0.01    0.00    1.66    0.04    0.00    0.00      -5.68   22.61    0.57
#  27   -8.50   -0.01    0.00    2.28    0.06    0.00    0.00      -6.17   22.75    0.57
#  28    0.44   -1.52    1.03    0.18   -0.12    0.00    0.00       0.01    0.58   -0.40
#  29   -0.53   -0.87    0.21    0.12   -0.11    0.00    0.00      -1.18    0.41   -0.39
#  30    9.90   -0.80    0.07   -5.98    0.81    0.00    0.00       4.00  -23.65    3.19
#  31   -0.16   -0.39    0.02    0.04   -0.09    0.00    0.00      -0.58    0.18   -0.40
#  32    0.07   -0.66    0.08    0.04   -0.14    0.00    0.00      -0.60    0.15   -0.48
#  33   13.84   -1.18    0.19   -8.76    0.35    0.00    0.00       4.43  -22.41    0.89
#  34  -10.25   -0.02    0.00    5.30    0.14    0.00    0.00      -4.83   21.34    0.57
#  35  -16.03   -0.05    0.00    8.05    0.21    0.00    0.00      -7.81   21.75    0.57
#  36    0.11   -1.12    0.26    0.23   -0.20    0.00    0.00      -0.73    0.54   -0.48
#  37   -0.59   -1.17    0.34    0.28   -0.15    0.00    0.00      -1.30    0.75   -0.42
#  38    1.02   -0.92    0.18   -0.49   -0.11    0.00    0.00      -0.32   -2.03   -0.44
#  39    0.01   -0.02    0.00    0.02    0.00    0.00    0.00       0.01    1.48   -0.27
#  40    0.03   -0.03    0.00    0.03   -0.01    0.00    0.00       0.02    1.12   -0.28
#  41  -10.96   -0.27    0.12    3.50    0.24    0.00    0.00      -7.37    8.63    0.59
#  42   -0.04   -0.24    0.03    0.72   -0.07    0.00    0.00       0.40    2.83   -0.27
#  43   -1.62   -0.27    0.14    0.12   -0.05    0.00    0.00      -1.68    0.68   -0.28
#  44   -0.10   -0.47    0.51    0.48   -0.06    0.00    0.00       0.36    2.15   -0.25
#  45   -0.59   -0.25    0.02    0.32   -0.06    0.00    0.00      -0.55    1.36   -0.24
#  46   -0.90   -0.35    0.06    0.75   -0.08    0.00    0.00      -0.52    2.69   -0.28
#  47   -2.30   -0.16    0.01    1.16   -0.04    0.00    0.00      -1.34    7.57   -0.28
#  48   -5.63   -0.46    0.40    2.15   -0.07    0.00    0.00      -3.60    8.72   -0.28
#  49   -5.46   -0.45    0.35    2.11   -0.07    0.00    0.00      -3.51    8.65   -0.28
#  50   -6.52   -0.81    0.91    2.69   -0.07    0.00    0.00      -3.79    8.22   -0.22
#  51   -6.88   -0.88    1.17    2.17   -0.08    0.00    0.00      -4.50    7.33   -0.28
#  52   -2.35   -0.95    1.58    1.40   -0.09    0.00    0.00      -0.41    4.25   -0.28
#  53   -0.94   -0.11    0.01    0.42   -0.03    0.00    0.00      -0.66    3.50   -0.28
#  54   -0.70   -0.16    0.02    0.47   -0.04    0.00    0.00      -0.41    3.24   -0.28
#  55   -0.73   -0.07    0.00    0.45   -0.02    0.00    0.00      -0.37    6.30   -0.21
#  56   -2.98   -0.45    0.43    1.84   -0.07    0.00    0.00      -1.24    6.89   -0.28
#  57   -2.80   -0.17    0.01    1.13   -0.06    0.00    0.00      -1.88    5.55   -0.28
#  58   -3.53   -1.12    2.78    2.45   -0.12    0.00    0.00       0.46    5.90   -0.28
#  59   -3.76   -0.24    0.02    1.37   -0.07    0.00    0.00      -2.69    5.22   -0.28
#  60   -3.95   -0.43    0.12    1.11   -0.10    0.00    0.00      -3.25    3.26   -0.28
#  61   -1.29   -0.76    0.80    0.97   -0.10    0.00    0.00      -0.38    2.70   -0.28
#  62   -1.64   -0.11    0.01    0.67   -0.03    0.00    0.00      -1.10    6.69   -0.27

@<TRIPOS>MOLECULE
          T530690        37
   62    66     0     0     0



@<TRIPOS>ATOM
      1 F1         12.7646   -19.7428    90.3720 F          1          -0.1724
      2 C1         13.3994   -18.8338    89.5188 C.3        1           0.5122
      3 F2         14.7613   -18.7727    89.8325 F          1          -0.1769
      4 F3         13.2444   -19.2524    88.1930 F          1          -0.1692
      5 C2         12.7828   -17.4693    89.6902 C.ar       1          -0.1534
      6 C3         13.2509   -16.4023    88.9368 C.ar       1          -0.0810
      7 C4         12.7054   -15.1577    89.0772 C.ar       1          -0.0524
      8 C5         11.6638   -14.9517    89.9882 C.ar       1           0.0793
      9 N1         10.9396   -13.8624    90.3414 N.2        1          -0.4546
     10 C6         10.0609   -14.1954    91.2601 C.2        1           0.3650
     11 N2         10.1768   -15.5315    91.5474 N.pl3      1          -0.5922
     12 C7         11.1893   -16.0335    90.7512 C.ar       1           0.0533
     13 C8         11.7531   -17.2912    90.5908 C.ar       1          -0.0553
     14 C9          9.0998   -13.2758    91.8847 C.2        1          -0.0948
     15 C10         7.7163   -13.3365    91.8923 C.2        1          -0.0908
     16 C11         7.0189   -12.3562    92.5472 C.2        1          -0.1189
     17 C12         7.7232   -11.3448    93.1746 C.2        1          -0.1326
     18 S1          9.4162   -11.7981    92.8350 S.3        1           0.0998
     19 C13         7.2069   -10.1886    93.9358 C.ar       1           0.0153
     20 C14         7.0009   -10.2910    95.3131 C.ar       1          -0.0619
     21 C15         6.5191    -9.2076    96.0176 C.ar       1          -0.1010
     22 C16         6.2395    -8.0211    95.3625 C.ar       1          -0.0896
     23 C17         6.4413    -7.9128    93.9981 C.ar       1          -0.1642
     24 C18         6.1340    -6.6167    93.2933 C.3        1           0.0501
     25 N3          4.7371    -6.6260    92.8384 N.4        1          -0.5090
     26 H1          4.5957    -7.3964    92.2024 H          1           0.4323
     27 H2          4.1251    -6.7296    93.6337 H          1           0.4282
     28 C19         4.4377    -5.3626    92.1512 C.3        1          -0.0116
     29 C20         2.9829    -5.3722    91.6773 C.3        1           0.0251
     30 N4          2.0917    -5.5230    92.8354 N.3        1          -0.5336
     31 C21         0.7960    -6.0882    92.4328 C.3        1           0.0128
     32 C22        -0.0789    -6.2844    93.6728 C.3        1          -0.0036
     33 N5         -0.2758    -4.9922    94.3428 N.4        1          -0.5105
     34 H3         -0.7187    -4.3473    93.7055 H          1           0.4286
     35 H4         -0.8629    -5.1199    95.1535 H          1           0.4422
     36 C23         1.0245    -4.4521    94.7607 C.3        1          -0.0042
     37 C24         1.9087    -4.2406    93.5296 C.3        1           0.0253
     38 C25         6.9282    -8.9869    93.2822 C.ar       1          -0.0896
     39 H5         14.0548   -16.5572    88.2325 H          1           0.1508
     40 H6         13.0780   -14.3341    88.4864 H          1           0.1499
     41 H7          9.6478   -16.0307    92.1892 H          1           0.4248
     42 H8         11.3898   -18.1264    91.1712 H          1           0.1409
     43 H9          7.1975   -14.1406    91.3917 H          1           0.1605
     44 H10         5.9394   -12.3726    92.5726 H          1           0.1514
     45 H11         7.2179   -11.2167    95.8254 H          1           0.1438
     46 H12         6.3593    -9.2855    97.0829 H          1           0.1456
     47 H13         5.8617    -7.1760    95.9189 H          1           0.1363
     48 H14         6.2868    -5.7844    93.9803 H          1           0.1391
     49 H15         6.7952    -6.5047    92.4340 H          1           0.1442
     50 H16         4.5904    -4.5303    92.8383 H          1           0.1312
     51 H17         5.0989    -5.2506    91.2920 H          1           0.1471
     52 H18         2.7606    -4.4347    91.1676 H          1           0.1125
     53 H19         2.8299    -6.2045    90.9903 H          1           0.0706
     54 H20         0.3004    -5.4058    91.7423 H          1           0.0707
     55 H21         0.9547    -7.0494    91.9437 H          1           0.1231
     56 H22        -1.0456    -6.6902    93.3748 H          1           0.1450
     57 H23         0.4107    -6.9774    94.3570 H          1           0.1436
     58 H24         0.8759    -3.4994    95.2691 H          1           0.1469
     59 H25         1.5085    -5.1545    95.4392 H          1           0.1441
     60 H26         2.8790    -3.8538    93.8409 H          1           0.1308
     61 H27         1.4314    -3.5278    92.8572 H          1           0.0706
     62 H28         7.0895    -8.8996    92.2179 H          1           0.1300
@<TRIPOS>BOND
     1    1    2 1
     2    2    3 1
     3    2    4 1
     4    2    5 1
     5    5   13 ar
     6    5    6 ar
     7    6    7 ar
     8    6   39 1
     9    7    8 ar
    10    7   40 1
    11    8   12 ar
    12    8    9 1
    13    9   10 2
    14   10   11 1
    15   10   14 1
    16   11   12 1
    17   11   41 1
    18   12   13 ar
    19   13   42 1
    20   14   18 1
    21   14   15 2
    22   15   16 1
    23   15   43 1
    24   16   17 2
    25   16   44 1
    26   17   18 1
    27   17   19 1
    28   19   38 ar
    29   19   20 ar
    30   20   21 ar
    31   20   45 1
    32   21   22 ar
    33   21   46 1
    34   22   23 ar
    35   22   47 1
    36   23   24 1
    37   23   38 ar
    38   24   25 1
    39   24   48 1
    40   24   49 1
    41   25   26 1
    42   25   27 1
    43   25   28 1
    44   28   29 1
    45   28   50 1
    46   28   51 1
    47   29   30 1
    48   29   52 1
    49   29   53 1
    50   30   37 1
    51   30   31 1
    52   31   32 1
    53   31   54 1
    54   31   55 1
    55   32   33 1
    56   32   56 1
    57   32   57 1
    58   33   34 1
    59   33   35 1
    60   33   36 1
    61   36   37 1
    62   36   58 1
    63   36   59 1
    64   37   60 1
    65   37   61 1
    66   38   62 1
##########                 Name:              T542112
##########          Protonation:                   98
##########               SMILES:   C2)CC[NH+](CC3)CCC[C@H](NC(=O)Nc4cc(cc(c4)C(F)(F)F)C(F)(F)F)c5cc(c(cc5)Cl)Cl
##########            Long Name:   hlorophenyl)-4-spiro[1H-isobenzofuran-3,4'-piperidin-1-ium]-1'-yl-butyl]urea
##########          FlexRecCode: 1
##########               Number:                  175
##########   Ligand Source File: /raidb/db2/rgc/tcams/tcams-0002268.db2.gz
##########           GlobalRank: 392
##########                 Rank:                    1
##########               Setnum:                  174
##########             Matchnum:                 1974
##########                Cloud:                    1
##########        Electrostatic:           -25.983376
##########        Van der Waals:           -39.068295
##########  Ligand Polar Desolv:             6.983662
########## Ligand Apolar Desolv:            -6.224763
##########      Internal Energy:             0.000000
##########      Receptor Energy: 0.0
########## Receptor Desolvation:             0.000000
########## Receptor Hydrophobic:             0.000000
##########         Total Energy: -64.29
##########        Ligand Charge:             1.000000
##########            Arbitrary:    +999.9990
##########     heavy atom count:   44
##########           pose count:    1
##########        Ligand Energy:             0.000000
# num electro vdwattr vdwrepu polsolv apolsol rdesolv rhydroe totalscore fullpol fullapo
#   1    0.21   -0.05    0.00   -0.07   -0.02    0.00    0.00       0.07   -1.63   -0.44
#   2   -0.83   -0.13    0.00    0.33   -0.01    0.00    0.00      -0.64    4.20   -0.07
#   3    0.40   -0.18    0.00   -0.16   -0.07    0.00    0.00       0.00   -1.15   -0.48
#   4    0.25   -0.11    0.00   -0.11   -0.05    0.00    0.00      -0.02   -1.15   -0.47
#   5    0.23   -0.24    0.00   -0.16   -0.04    0.00    0.00      -0.21   -1.63   -0.37
#   6    0.04   -0.58    0.04   -0.10   -0.09    0.00    0.00      -0.68   -0.46   -0.42
#   7    0.18   -0.67    0.05   -0.29   -0.10    0.00    0.00      -0.83   -1.12   -0.38
#   8    0.06   -0.45    0.02   -0.10   -0.07    0.00    0.00      -0.55   -0.54   -0.38
#   9   -0.24   -0.25    0.00    0.25   -0.07    0.00    0.00      -0.30    2.62   -0.68
#  10    1.15   -0.34    0.01   -1.82    0.25    0.00    0.00      -0.76  -12.47    1.70
#  11   -1.66   -0.62    0.05    2.81   -0.47    0.00    0.00       0.11   12.42   -2.08
#  12    1.43   -1.09    0.17   -2.31    0.11    0.00    0.00      -1.69   -6.97    0.33
#  13    5.43   -0.56    0.03   -3.45    0.32    0.00    0.00       1.77  -16.71    1.57
#  14   -3.90   -0.54    0.04    1.37   -0.06    0.00    0.00      -3.09    4.89   -0.22
#  15    2.45   -0.47    0.02   -0.94   -0.06    0.00    0.00       1.00   -3.39   -0.20
#  16    2.15   -0.38    0.02   -1.06   -0.04    0.00    0.00       0.68   -5.38   -0.21
#  17    0.25   -0.44    0.02    0.00   -0.08    0.00    0.00      -0.26   -0.02   -0.35
#  18    9.00   -0.87    0.06   -4.67    0.10    0.00    0.00       3.62  -12.99    0.27
#  19  -11.30   -0.02    0.00    4.29    0.13    0.00    0.00      -6.90   17.97    0.54
#  20    0.32   -1.25    0.36    0.08   -0.16    0.00    0.00      -0.66    0.17   -0.36
#  21    3.38   -0.78    0.08   -1.51   -0.09    0.00    0.00       1.08   -3.84   -0.22
#  22   -1.91   -0.88    0.08    1.09   -0.02    0.00    0.00      -1.63    2.69   -0.06
#  23    0.86   -1.40    0.55   -1.43   -0.09    0.00    0.00      -1.50   -3.63   -0.22
#  24    0.37   -0.91    0.09    0.10   -0.16    0.00    0.00      -0.51    0.23   -0.37
#  25    4.81   -2.14    0.63   -2.87    0.74    0.00    0.00       1.17   -5.55    1.43
#  26   -1.33   -1.70    0.47    0.55   -0.08    0.00    0.00      -2.11    0.97   -0.15
#  27    1.59   -1.80    0.34   -1.17   -0.22    0.00    0.00      -1.25   -2.31   -0.44
#  28    1.08   -1.88    0.52   -0.75   -0.23    0.00    0.00      -1.26   -1.55   -0.47
#  29    0.91   -1.39    0.18   -0.88   -0.21    0.00    0.00      -1.39   -1.93   -0.47
#  30    0.69   -1.25    0.11   -0.80   -0.18    0.00    0.00      -1.42   -2.10   -0.47
#  31    0.56   -1.46    0.24   -0.61   -0.13    0.00    0.00      -1.41   -1.74   -0.37
#  32    1.36   -1.43    0.18   -0.78   -0.12    0.00    0.00      -0.79   -2.02   -0.31
#  33    2.23   -1.24    0.19   -0.42   -0.13    0.00    0.00       0.64   -1.12   -0.34
#  34    2.65   -3.09    2.85   -0.53   -0.20    0.00    0.00       1.67   -1.18   -0.44
#  35    2.39   -2.36    0.58   -0.80   -0.26    0.00    0.00      -0.44   -1.40   -0.46
#  36    0.60   -1.85    0.17   -0.41   -0.19    0.00    0.00      -1.68   -0.64   -0.29
#  37    0.84   -6.76    3.47   -0.36   -0.65    0.00    0.00      -3.46   -0.53   -0.95
#  38    0.68   -2.05    0.30   -0.31   -0.15    0.00    0.00      -1.54   -0.59   -0.29
#  39    0.81  -10.62    9.64   -0.34   -0.58    0.00    0.00      -1.10   -0.55   -0.95
#  40    1.43   -1.58    0.33   -0.50   -0.18    0.00    0.00      -0.50   -1.21   -0.44
#  41    0.09   -0.17    0.00   -0.03   -0.03    0.00    0.00      -0.14   -0.52   -0.44
#  42   -0.28   -1.04    0.17    0.68   -0.03    0.00    0.00      -0.50    1.57   -0.07
#  43    0.05   -1.57    0.66   -0.18   -0.24    0.00    0.00      -1.29   -0.37   -0.48
#  44    0.06   -0.99    0.21   -0.22   -0.22    0.00    0.00      -1.16   -0.45   -0.45
#  45    0.08   -2.08    1.63   -0.20   -0.20    0.00    0.00      -0.78   -0.45   -0.45
#  46   -0.19   -0.20    0.03    0.16   -0.05    0.00    0.00      -0.25    0.88   -0.27
#  47   -0.31   -0.12    0.01    0.13   -0.03    0.00    0.00      -0.33    0.85   -0.20
#  48   -0.59    0.00    0.00    0.70    0.04    0.00    0.00       0.14   11.22    0.59
#  49   -2.46   -0.01    0.00    1.32    0.06    0.00    0.00      -1.10   13.38    0.58
#  50   -2.42   -0.23    0.03    0.43   -0.06    0.00    0.00      -2.26    1.75   -0.26
#  51   -1.80   -0.19    0.02    0.78   -0.05    0.00    0.00      -1.24    4.21   -0.28
#  52   -2.43   -0.18    0.01    0.58   -0.06    0.00    0.00      -2.08    2.92   -0.28
#  53   -0.87   -0.17    0.02    0.42   -0.03    0.00    0.00      -0.63    2.93   -0.21
#  54   -0.92   -0.08    0.00    0.34   -0.02    0.00    0.00      -0.68    4.44   -0.26
#  55   -2.08   -0.12    0.01    0.81   -0.03    0.00    0.00      -1.41    7.80   -0.28
#  56   -4.07   -0.18    0.02    0.92   -0.05    0.00    0.00      -3.35    5.73   -0.28
#  57   -4.91   -0.39    0.06    1.60   -0.08    0.00    0.00      -3.71    4.07   -0.21
#  58   -3.59   -1.30    2.44    2.30   -0.08    0.00    0.00      -0.22    5.98   -0.22
#  59   -2.58   -0.16    0.01    0.21   -0.05    0.00    0.00      -2.58    1.23   -0.28
#  60   -2.43   -0.33    0.05    1.13   -0.09    0.00    0.00      -1.67    3.35   -0.28
#  61   -0.01   -0.57    0.82    0.38   -0.07    0.00    0.00       0.56    1.60   -0.28
#  62    0.01   -1.19    1.60    1.47   -0.12    0.00    0.00       1.78    3.48   -0.28
#  63   -2.71   -0.46    0.12    3.22   -0.11    0.00    0.00       0.06    7.85   -0.28
#  64   -2.29   -0.24    0.02    1.24   -0.04    0.00    0.00      -1.30    4.47   -0.13
#  65   -1.48   -0.68    0.52    0.52   -0.14    0.00    0.00      -1.27    1.02   -0.28
#  66   -2.11   -0.74    0.18    0.31   -0.16    0.00    0.00      -2.51    0.54   -0.28
#  67   -2.34   -0.42    0.08    0.33   -0.12    0.00    0.00      -2.48    0.75   -0.28
#  68   -1.25   -0.26    0.02    0.37   -0.09    0.00    0.00      -1.20    1.21   -0.28
#  69   -0.89   -0.21    0.01    0.63   -0.06    0.00    0.00      -0.52    2.96   -0.28
#  70   -0.16   -0.38    0.17    1.51   -0.04    0.00    0.00       1.11    6.41   -0.16
#  71   -5.67   -1.34    2.16    2.17   -0.12    0.00    0.00      -2.80    4.75   -0.26
#  72   -3.60   -0.68    0.22    1.10   -0.16    0.00    0.00      -3.11    1.94   -0.28
#  73   -1.31   -0.71    1.03    0.58   -0.08    0.00    0.00      -0.49    2.05   -0.28
#  74   -0.15   -0.02    0.00    0.12   -0.01    0.00    0.00      -0.06    4.02   -0.25

@<TRIPOS>MOLECULE
          T542112        98
   74    78     0     0     0



@<TRIPOS>ATOM
      1 F1          3.4834    -9.2457    87.5918 F          1          -0.1745
      2 C1          2.9827    -8.0681    87.0262 C.3        1           0.5134
      3 F2          3.9746    -7.0817    87.0485 F          1          -0.1679
      4 F3          2.5978    -8.3128    85.7036 F          1          -0.1689
      5 C2          1.7894    -7.5986    87.8179 C.ar       1          -0.1605
      6 C3          1.1196    -6.4490    87.4413 C.ar       1          -0.0328
      7 C4          0.0243    -6.0148    88.1651 C.ar       1          -0.1595
      8 C5         -0.4044    -6.7290    89.2668 C.ar       1          -0.0402
      9 C6          0.2658    -7.8842    89.6473 C.ar       1           0.1633
     10 N1         -0.1664    -8.6104    90.7628 N.am       1          -0.6810
     11 C7         -0.1960    -8.0264    91.9771 C.2        1           0.7054
     12 O1         -0.5717    -8.6574    92.9462 O.2        1          -0.5535
     13 N2          0.1907    -6.7429    92.1171 N.am       1          -0.7370
     14 C8          0.1585    -6.1081    93.4370 C.3        1           0.2109
     15 C9          1.5682    -5.6507    93.8175 C.3        1          -0.1218
     16 C10         2.5039    -6.8606    93.8561 C.3        1          -0.1514
     17 C11         3.9135    -6.4032    94.2364 C.3        1          -0.0119
     18 N3          3.8812    -5.7667    95.5600 N.4        1          -0.3825
     19 H1          3.2634    -4.9695    95.5307 H          1           0.4229
     20 C12         5.2335    -5.3185    95.9150 C.3        1          -0.0117
     21 C13         6.1944    -6.5098    95.8969 C.3        1          -0.1553
     22 C14         5.7013    -7.5576    96.8955 C.3        1           0.1474
     23 C15         4.2701    -7.9752    96.5547 C.3        1          -0.1355
     24 C16         3.3818    -6.7304    96.5488 C.3        1          -0.0229
     25 O2          5.7652    -7.0403    98.2298 O.3        1          -0.3341
     26 C17         7.0839    -7.3315    98.7134 C.3        1           0.0832
     27 C18         7.4523    -8.6172    98.0149 C.ar       1          -0.1177
     28 C19         8.4030    -9.5822    98.2832 C.ar       1          -0.0819
     29 C20         8.5238   -10.6825    97.4549 C.ar       1          -0.0976
     30 C21         7.6934   -10.8167    96.3577 C.ar       1          -0.1065
     31 C22         6.7407    -9.8516    96.0892 C.ar       1          -0.1116
     32 C23         6.6190    -8.7528    96.9169 C.ar       1          -0.1435
     33 C24        -0.7631    -4.9163    93.3990 C.ar       1          -0.0968
     34 C25        -1.8660    -4.8689    94.2315 C.ar       1          -0.0890
     35 C26        -2.7120    -3.7766    94.1977 C.ar       1          -0.0970
     36 C27        -2.4553    -2.7295    93.3305 C.ar       1          -0.0252
     37 Cl1        -3.5173    -1.3570    93.2879 Cl         1          -0.0355
     38 C28        -1.3509    -2.7769    92.4972 C.ar       1          -0.0296
     39 Cl2        -1.0270    -1.4636    91.4090 Cl         1          -0.0359
     40 C29        -0.5023    -3.8689    92.5359 C.ar       1          -0.0802
     41 C30         1.3625    -8.3201    88.9155 C.ar       1          -0.0693
     42 C31        -0.7021    -4.7608    87.7518 C.3        1           0.5122
     43 F4         -0.0872    -4.2181    86.6182 F          1          -0.1687
     44 F5         -2.0344    -5.0693    87.4568 F          1          -0.1711
     45 F6         -0.6587    -3.8309    88.7960 F          1          -0.1698
     46 H2          1.4530    -5.8888    86.5802 H          1           0.1535
     47 H3         -1.2598    -6.3893    89.8319 H          1           0.1598
     48 H4         -0.4449    -9.5342    90.6620 H          1           0.4130
     49 H5          0.4904    -6.2396    91.3441 H          1           0.3998
     50 H6         -0.2030    -6.8236    94.1757 H          1           0.1098
     51 H7          1.9297    -4.9352    93.0790 H          1           0.0877
     52 H8          1.5442    -5.1784    94.7996 H          1           0.0996
     53 H9          2.1423    -7.5761    94.5946 H          1           0.0929
     54 H10         2.5278    -7.3329    92.8740 H          1           0.0901
     55 H11         4.5802    -7.2650    94.2638 H          1           0.1352
     56 H12         4.2750    -5.6876    93.4979 H          1           0.1321
     57 H13         5.5686    -4.5718    95.1950 H          1           0.1322
     58 H14         5.2196    -4.8792    96.9124 H          1           0.1386
     59 H15         6.2214    -6.9424    94.8968 H          1           0.1159
     60 H16         7.1935    -6.1778    96.1791 H          1           0.1034
     61 H17         4.2506    -8.4433    95.5705 H          1           0.1215
     62 H18         3.9072    -8.6800    97.3027 H          1           0.1020
     63 H19         3.3919    -6.2728    97.5379 H          1           0.1399
     64 H20         2.3618    -7.0167    96.2926 H          1           0.1418
     65 H21         7.7761    -6.5355    98.4388 H          1           0.0881
     66 H22         7.0719    -7.4737    99.7941 H          1           0.1105
     67 H23         9.0523    -9.4772    99.1398 H          1           0.1349
     68 H24         9.2673   -11.4372    97.6648 H          1           0.1380
     69 H25         7.7888   -11.6759    95.7103 H          1           0.1357
     70 H26         6.0919    -9.9567    95.2322 H          1           0.1211
     71 H27        -2.0666    -5.6861    94.9086 H          1           0.1327
     72 H28        -3.5736    -3.7406    94.8477 H          1           0.1454
     73 H29         0.3618    -3.9046    91.8890 H          1           0.1434
     74 H30         1.8833    -9.2204    89.2066 H          1           0.1525
@<TRIPOS>BOND
     1    1    2 1
     2    2    3 1
     3    2    4 1
     4    2    5 1
     5    5   41 ar
     6    5    6 ar
     7    6    7 ar
     8    6   46 1
     9    7    8 ar
    10    7   42 1
    11    8    9 ar
    12    8   47 1
    13    9   10 1
    14    9   41 ar
    15   10   11 am
    16   10   48 1
    17   11   12 2
    18   11   13 am
    19   13   14 1
    20   13   49 1
    21   14   15 1
    22   14   33 1
    23   14   50 1
    24   15   16 1
    25   15   51 1
    26   15   52 1
    27   16   17 1
    28   16   53 1
    29   16   54 1
    30   17   18 1
    31   17   55 1
    32   17   56 1
    33   18   19 1
    34   18   24 1
    35   18   20 1
    36   20   21 1
    37   20   57 1
    38   20   58 1
    39   21   22 1
    40   21   59 1
    41   21   60 1
    42   22   32 1
    43   22   23 1
    44   22   25 1
    45   23   24 1
    46   23   61 1
    47   23   62 1
    48   24   63 1
    49   24   64 1
    50   25   26 1
    51   26   27 1
    52   26   65 1
    53   26   66 1
    54   27   32 ar
    55   27   28 ar
    56   28   29 ar
    57   28   67 1
    58   29   30 ar
    59   29   68 1
    60   30   31 ar
    61   30   69 1
    62   31   32 ar
    63   31   70 1
    64   33   40 ar
    65   33   34 ar
    66   34   35 ar
    67   34   71 1
    68   35   36 ar
    69   35   72 1
    70   36   37 1
    71   36   38 ar
    72   38   39 1
    73   38   40 ar
    74   40   73 1
    75   41   74 1
    76   42   43 1
    77   42   44 1
    78   42   45 1
##########                 Name:              T540693
##########          Protonation:                   89
##########               SMILES:   Cc1cc(=[NH2+])[nH]c2c1ccc(c2)C[NH2+]CCc3ccc(cc3)OC
##########            Long Name:   mylidene-4-methyl-1H-quinolin-7-yl)methyl-[2-(4-methoxyphenyl)ethyl]ammonium
##########          FlexRecCode: 1
##########               Number:                  130
##########   Ligand Source File: /raidb/db2/rgc/tcams/tcams-0002007.db2.gz
##########           GlobalRank: 394
##########                 Rank:                    1
##########               Setnum:                   33
##########             Matchnum:                 2756
##########                Cloud:                    1
##########        Electrostatic:           -54.287571
##########        Van der Waals:           -23.355623
##########  Ligand Polar Desolv:            15.203271
########## Ligand Apolar Desolv:            -1.844082
##########      Internal Energy:             0.000000
##########      Receptor Energy: 0.0
########## Receptor Desolvation:             0.000000
########## Receptor Hydrophobic:             0.000000
##########         Total Energy: -64.28
##########        Ligand Charge:             2.000000
##########            Arbitrary:    +999.9990
##########     heavy atom count:   24
##########           pose count:    1
##########        Ligand Energy:             0.000000
# num electro vdwattr vdwrepu polsolv apolsol rdesolv rhydroe totalscore fullpol fullapo
#   1   -0.39   -1.36    0.21    0.16    0.02    0.00    0.00      -1.37    0.28    0.03
#   2    3.65   -1.21    0.13   -1.73    0.42    0.00    0.00       1.26   -3.84    0.93
#   3   -1.52   -1.30    0.13    0.07   -0.12    0.00    0.00      -2.74    0.20   -0.31
#   4    1.01   -1.47    0.35   -1.45   -0.14    0.00    0.00      -1.70   -4.31   -0.42
#   5    0.10   -2.31    2.71   -0.55   -0.13    0.00    0.00      -0.17   -1.92   -0.45
#   6    1.40   -1.19    0.39   -0.70   -0.10    0.00    0.00      -0.19   -2.58   -0.36
#   7    1.01   -0.53    0.08   -0.82   -0.05    0.00    0.00      -0.31   -3.85   -0.25
#   8    0.09   -0.39    0.04    0.19   -0.07    0.00    0.00      -0.14    1.08   -0.40
#   9    9.95   -0.47    0.04   -4.57    0.14    0.00    0.00       5.10  -23.26    0.73
#  10  -13.37   -0.02    0.00    3.59    0.09    0.00    0.00      -9.71   23.67    0.57
#  11   -8.07   -0.01    0.00    2.60    0.06    0.00    0.00      -5.41   22.90    0.57
#  12   -0.55   -0.23    0.01    0.35   -0.06    0.00    0.00      -0.48    2.57   -0.42
#  13    1.99   -0.56    0.05   -0.47   -0.07    0.00    0.00       0.94   -2.49   -0.37
#  14    3.26   -1.37    0.43   -1.10   -0.12    0.00    0.00       1.09   -4.22   -0.45
#  15   -5.08   -1.75    0.70    1.63   -0.21    0.00    0.00      -4.71    5.34   -0.69
#  16    2.01   -0.96    0.17   -1.16   -0.10    0.00    0.00      -0.05   -4.58   -0.40
#  17    0.62   -0.69    0.08   -0.74   -0.09    0.00    0.00      -0.81   -3.63   -0.44
#  18    1.58   -0.53    0.05   -0.78   -0.08    0.00    0.00       0.24   -4.27   -0.44
#  19   -1.59   -1.04    0.15    0.27   -0.13    0.00    0.00      -2.34    0.86   -0.42
#  20    1.51   -0.52    0.03   -1.35   -0.06    0.00    0.00      -0.40   -4.24   -0.20
#  21    6.33   -1.84    0.44   -3.10   -0.19    0.00    0.00       1.63   -7.62   -0.46
#  22  -19.42   -2.13    0.54    9.21   -0.93    0.00    0.00     -12.72   20.81   -2.10
#  23   26.17   -2.77    0.88  -12.84    0.41    0.00    0.00      11.86  -26.41    0.85
#  24  -19.86   -0.09    0.01    8.16    0.27    0.00    0.00     -11.51   17.82    0.59
#  25  -15.30   -0.05    0.00    7.73    0.25    0.00    0.00      -7.37   18.32    0.60
#  26   24.09   -3.38    2.44   -9.50    0.43    0.00    0.00      14.07  -23.16    1.04
#  27    1.02   -1.08    0.08   -0.61   -0.16    0.00    0.00      -0.75   -1.67   -0.45
#  28    2.06   -1.33    0.13   -1.54   -0.20    0.00    0.00      -0.88   -3.62   -0.46
#  29   -2.18   -0.45    0.07    0.56   -0.13    0.00    0.00      -2.13    1.17   -0.28
#  30   -1.14   -0.46    0.09    0.48   -0.12    0.00    0.00      -1.15    1.06   -0.27
#  31   -1.10   -0.57    0.16    0.41   -0.13    0.00    0.00      -1.22    0.82   -0.26
#  32   -0.53   -0.24    0.03    0.39   -0.05    0.00    0.00      -0.40    1.76   -0.22
#  33    0.50   -0.70    0.90    1.15   -0.06    0.00    0.00       1.79    5.27   -0.28
#  34   -0.54   -0.22    0.06    0.86   -0.04    0.00    0.00       0.12    5.46   -0.28
#  35   -1.98   -0.11    0.00    0.47   -0.03    0.00    0.00      -1.64    5.05   -0.28
#  36   -0.03   -0.26    0.09    0.99   -0.04    0.00    0.00       0.75    6.17   -0.28
#  37   -1.35   -0.07    0.00    0.45   -0.02    0.00    0.00      -0.99    6.73   -0.28
#  38   -1.19   -0.05    0.00    0.34   -0.01    0.00    0.00      -0.91    7.62   -0.28
#  39   -1.86   -0.05    0.00    0.44   -0.01    0.00    0.00      -1.49    8.68   -0.28
#  40   -4.87   -0.35    0.10    2.30   -0.07    0.00    0.00      -2.88    9.77   -0.28
#  41   -1.66   -0.13    0.02    0.47   -0.03    0.00    0.00      -1.33    3.85   -0.21
#  42   -1.73   -0.08    0.01    0.57   -0.02    0.00    0.00      -1.26    6.91   -0.28
#  43   -1.23   -0.18    0.01    0.45   -0.06    0.00    0.00      -1.02    1.93   -0.28
#  44   -0.91   -0.24    0.02    0.63   -0.08    0.00    0.00      -0.58    2.15   -0.28
#  45   -0.50   -0.07    0.00    0.14   -0.01    0.00    0.00      -0.45    2.51   -0.22
#  46   -6.73   -0.80    0.99    2.52   -0.11    0.00    0.00      -4.13    6.43   -0.28
#  47  -23.18   -0.12    0.01    8.86    0.28    0.00    0.00     -14.15   18.82    0.59
#  48   -2.66   -0.25    0.02    1.37   -0.07    0.00    0.00      -1.58    5.65   -0.28
#  49   -2.12   -0.38    0.12    0.39   -0.10    0.00    0.00      -2.10    1.08   -0.28

@<TRIPOS>MOLECULE
          T540693        89
   49    51     0     0     0



@<TRIPOS>ATOM
      1 C1          8.2226    -8.4236    98.6400 C.3        1           0.0224
      2 O1          7.8475    -9.2474    97.5342 O.3        1          -0.3105
      3 C2          6.8382    -8.7966    96.7435 C.ar       1           0.1522
      4 C3          6.4190    -9.5486    95.6557 C.ar       1          -0.2069
      5 C4          5.3925    -9.0885    94.8538 C.ar       1          -0.0644
      6 C5          4.7834    -7.8793    95.1344 C.ar       1          -0.1590
      7 C6          3.6643    -7.3794    94.2576 C.3        1          -0.0911
      8 C7          3.8661    -7.8933    92.8307 C.3        1          -0.0099
      9 N1          5.1506    -7.4048    92.3114 N.4        1          -0.5097
     10 H1          5.1504    -6.3958    92.3087 H          1           0.4268
     11 H2          5.8998    -7.7394    92.8986 H          1           0.4301
     12 C8          5.3444    -7.8982    90.9415 C.3        1           0.0375
     13 C9          6.6620    -7.3971    90.4087 C.ar       1          -0.0977
     14 C10         6.7162    -6.1894    89.7427 C.ar       1          -0.1137
     15 C11         7.9283    -5.7271    89.2520 C.ar       1           0.1695
     16 C12         9.0960    -6.4904    89.4353 C.ar       1          -0.0948
     17 C13         9.0233    -7.7111    90.1124 C.ar       1          -0.0407
     18 C14         7.8112    -8.1506    90.5969 C.ar       1          -0.1012
     19 C15        10.3740    -5.9932    88.9130 C.2        1           0.0826
     20 C16        11.6737    -6.6352    89.3250 C.3        1          -0.1477
     21 C17        10.3631    -4.9459    88.0523 C.2        1          -0.2220
     22 C18         9.0640    -4.3625    87.6836 C.cat      1           0.5664
     23 N2          8.9038    -3.7201    86.5511 N.pl3      1          -0.7122
     24 H3          9.6499    -3.6229    85.9390 H          1           0.4562
     25 H4          8.0393    -3.3424    86.3259 H          1           0.4366
     26 N3          8.0147    -4.5168    88.5774 N.pl3      1          -0.6288
     27 C19         5.1992    -7.1282    96.2182 C.ar       1          -0.0669
     28 C20         6.2217    -7.5864    97.0262 C.ar       1          -0.1500
     29 H5          9.0371    -8.8986    99.1870 H          1           0.1103
     30 H6          8.5499    -7.4505    98.2737 H          1           0.0602
     31 H7          7.3671    -8.2934    99.3028 H          1           0.0612
     32 H8          6.8949   -10.4928    95.4358 H          1           0.1365
     33 H9          5.0657    -9.6735    94.0068 H          1           0.1269
     34 H10         2.7112    -7.7418    94.6429 H          1           0.0933
     35 H11         3.6642    -6.2894    94.2546 H          1           0.0943
     36 H12         3.8662    -8.9832    92.8336 H          1           0.1376
     37 H13         3.0568    -7.5317    92.1965 H          1           0.1365
     38 H14         5.3446    -8.9882    90.9444 H          1           0.1516
     39 H15         4.5350    -7.5368    90.3071 H          1           0.1473
     40 H16         5.8177    -5.6065    89.6039 H          1           0.1541
     41 H17         9.9136    -8.3048    90.2584 H          1           0.1632
     42 H18         7.7544    -9.0915    91.1241 H          1           0.1551
     43 H19        12.5025    -6.1261    88.8330 H          1           0.1130
     44 H20        11.7903    -6.5580    90.4062 H          1           0.1024
     45 H21        11.6683    -7.6856    89.0344 H          1           0.0949
     46 H22        11.2834    -4.5507    87.6480 H          1           0.1930
     47 H23         7.3681    -3.8088    88.7246 H          1           0.4464
     48 H24         4.7216    -6.1841    96.4354 H          1           0.1300
     49 H25         6.5436    -7.0011    97.8748 H          1           0.1389
@<TRIPOS>BOND
     1    1    2 1
     2    1   29 1
     3    1   30 1
     4    1   31 1
     5    2    3 1
     6    3   28 ar
     7    3    4 ar
     8    4    5 ar
     9    4   32 1
    10    5    6 ar
    11    5   33 1
    12    6    7 1
    13    6   27 ar
    14    7    8 1
    15    7   34 1
    16    7   35 1
    17    8    9 1
    18    8   36 1
    19    8   37 1
    20    9   10 1
    21    9   11 1
    22    9   12 1
    23   12   13 1
    24   12   38 1
    25   12   39 1
    26   13   18 ar
    27   13   14 ar
    28   14   15 ar
    29   14   40 1
    30   15   26 1
    31   15   16 ar
    32   16   17 ar
    33   16   19 1
    34   17   18 ar
    35   17   41 1
    36   18   42 1
    37   19   20 1
    38   19   21 2
    39   20   43 1
    40   20   44 1
    41   20   45 1
    42   21   22 1
    43   21   46 1
    44   22   23 2
    45   22   26 1
    46   23   24 1
    47   23   25 1
    48   26   47 1
    49   27   28 ar
    50   27   48 1
    51   28   49 1
##########                 Name:              T541978
##########          Protonation:                   94
##########               SMILES:   c1cc(ccc1NC(=O)N2CCC[NH+](CC2)CCCCCNC(=O)/C=C/c3ccc(c(c3)Cl)Cl)[N+](=O)[O-]
##########            Long Name:   rop-2-enoyl]amino]pentyl]-N-(4-nitrophenyl)-1,4-diazepan-4-ium-1-carboxamide
##########          FlexRecCode: 1
##########               Number:                  127
##########   Ligand Source File: /raidb/db2/rgc/tcams/tcams-0002227.db2.gz
##########           GlobalRank: 394
##########                 Rank:                    1
##########               Setnum:                  134
##########             Matchnum:                 4957
##########                Cloud:                    1
##########        Electrostatic:           -37.770859
##########        Van der Waals:           -38.080841
##########  Ligand Polar Desolv:            16.148830
########## Ligand Apolar Desolv:            -4.579958
##########      Internal Energy:             0.000000
##########      Receptor Energy: 0.0
########## Receptor Desolvation:             0.000000
########## Receptor Hydrophobic:             0.000000
##########         Total Energy: -64.28
##########        Ligand Charge:             1.000000
##########            Arbitrary:    +999.9990
##########     heavy atom count:   37
##########           pose count:    1
##########        Ligand Energy:             0.000000
# num electro vdwattr vdwrepu polsolv apolsol rdesolv rhydroe totalscore fullpol fullapo
#   1    0.03   -0.42    0.03   -0.03   -0.09    0.00    0.00      -0.49   -0.29   -0.95
#   2    0.02   -0.28    0.01   -0.04   -0.03    0.00    0.00      -0.32   -0.32   -0.29
#   3    0.10   -0.31    0.02   -0.10   -0.06    0.00    0.00      -0.35   -0.74   -0.46
#   4    0.10   -0.34    0.02   -0.10   -0.07    0.00    0.00      -0.40   -0.67   -0.45
#   5    0.12   -0.57    0.07   -0.08   -0.07    0.00    0.00      -0.53   -0.46   -0.41
#   6    0.02   -0.60    0.06   -0.07   -0.09    0.00    0.00      -0.68   -0.37   -0.44
#   7    1.54   -1.56    0.80   -0.60   -0.13    0.00    0.00       0.05   -2.04   -0.43
#   8   -6.57   -1.15    0.19    1.47   -0.21    0.00    0.00      -6.27    4.62   -0.65
#   9    4.67   -1.04    0.27   -0.54    0.11    0.00    0.00       3.48   -1.94    0.39
#  10   13.63   -1.79    0.50   -3.88    0.93    0.00    0.00       9.39   -9.72    2.33
#  11   -2.53   -1.34    0.24    0.76   -0.21    0.00    0.00      -3.09    1.50   -0.42
#  12    3.17   -1.42    0.23   -1.55   -0.13    0.00    0.00       0.30   -2.59   -0.22
#  13    3.01   -1.49    0.35   -1.59   -0.11    0.00    0.00       0.16   -3.21   -0.22
#  14    3.67   -1.54    0.68   -2.04   -0.09    0.00    0.00       0.68   -4.63   -0.21
#  15    0.55   -1.23    0.30   -0.01   -0.15    0.00    0.00      -0.54   -0.03   -0.34
#  16    9.26   -1.13    0.14   -4.97    0.08    0.00    0.00       3.38  -12.38    0.19
#  17  -11.81   -0.04    0.00    6.03    0.15    0.00    0.00      -5.66   18.21    0.46
#  18    0.18   -0.47    0.01    0.07   -0.10    0.00    0.00      -0.31    0.24   -0.38
#  19    5.04   -0.79    0.12   -1.32   -0.08    0.00    0.00       2.97   -4.03   -0.24
#  20   -3.24   -0.65    0.10    0.66   -0.13    0.00    0.00      -3.25    2.41   -0.46
#  21   12.63   -0.88    0.04   -4.80    0.47    0.00    0.00       7.44  -14.82    1.44
#  22   -2.05   -1.37    0.41    0.76   -0.17    0.00    0.00      -2.42    1.78   -0.40
#  23    1.40   -1.13    0.16   -0.77   -0.17    0.00    0.00      -0.52   -1.68   -0.37
#  24   -7.05   -1.21    0.22    4.21   -0.65    0.00    0.00      -4.48   12.81   -1.99
#  25    2.16   -2.43    0.96   -3.04    0.13    0.00    0.00      -2.22   -7.32    0.32
#  26    6.11   -1.07    0.15   -4.12    0.50    0.00    0.00       1.57  -13.66    1.65
#  27   -1.28   -1.33    0.18    1.38   -0.23    0.00    0.00      -1.28    4.00   -0.67
#  28    0.22   -1.93    0.62   -0.51   -0.14    0.00    0.00      -1.75   -1.43   -0.40
#  29    0.13   -1.73    0.29   -0.17   -0.20    0.00    0.00      -1.67   -0.40   -0.45
#  30    0.42   -1.66    0.32   -0.38   -0.36    0.00    0.00      -1.67   -0.74   -0.70
#  31    0.30   -1.82    0.63   -0.17   -0.20    0.00    0.00      -1.27   -0.39   -0.45
#  32    1.52   -1.42    0.18   -0.69   -0.18    0.00    0.00      -0.60   -1.76   -0.46
#  33   -0.21   -2.29    0.40    0.01    0.25    0.00    0.00      -1.84    0.01    0.42
#  34    0.81   -2.78    0.82    0.30   -0.38    0.00    0.00      -1.24    0.49   -0.63
#  35    1.25   -3.22    1.98    0.06   -0.39    0.00    0.00      -0.32    0.09   -0.63
#  36    0.16   -1.28    0.86   -0.16   -0.10    0.00    0.00      -0.50   -0.70   -0.43
#  37    0.05   -0.60    0.13   -0.06   -0.05    0.00    0.00      -0.53   -0.35   -0.29
#  38    0.05   -1.23    0.30   -0.07   -0.19    0.00    0.00      -1.14   -0.33   -0.95
#  39   -0.11   -0.06    0.00    0.09   -0.02    0.00    0.00      -0.09    1.35   -0.28
#  40   -0.16   -0.06    0.00    0.11   -0.02    0.00    0.00      -0.12    1.92   -0.28
#  41   -0.27   -0.06    0.00    0.05   -0.02    0.00    0.00      -0.29    0.89   -0.26
#  42   -1.36   -0.88    1.23    1.00   -0.07    0.00    0.00      -0.08    2.88   -0.21
#  43   -8.87   -0.04    0.00    2.67    0.19    0.00    0.00      -6.05    7.92    0.56
#  44   -1.15   -0.60    0.37    0.15   -0.11    0.00    0.00      -1.35    0.38   -0.28
#  45   -1.59   -0.68    0.29    0.18   -0.14    0.00    0.00      -1.94    0.36   -0.28
#  46   -1.78   -0.98    0.75    1.04   -0.13    0.00    0.00      -1.10    2.20   -0.28
#  47   -1.78   -0.35    0.02    0.97   -0.12    0.00    0.00      -1.25    2.35   -0.28
#  48   -2.14   -0.81    0.38    0.72   -0.14    0.00    0.00      -1.99    1.48   -0.28
#  49   -2.34   -0.41    0.11    0.52   -0.10    0.00    0.00      -2.23    1.47   -0.28
#  50   -1.88   -0.26    0.03    1.13   -0.08    0.00    0.00      -1.06    4.17   -0.28
#  51   -2.07   -1.44    3.59    1.98   -0.10    0.00    0.00       1.97    4.36   -0.22
#  52   -4.29   -0.68    0.33    2.12   -0.13    0.00    0.00      -2.65    4.44   -0.28
#  53   -4.01   -0.29    0.08    1.32   -0.06    0.00    0.00      -2.97    5.42   -0.26
#  54   -1.98   -0.11    0.00    0.26   -0.02    0.00    0.00      -1.85    2.59   -0.24
#  55   -2.71   -0.12    0.00    0.72   -0.03    0.00    0.00      -2.14    5.82   -0.25
#  56   -4.40   -0.27    0.05    0.67   -0.06    0.00    0.00      -4.02    2.96   -0.28
#  57   -3.56   -0.37    0.06    1.85   -0.09    0.00    0.00      -2.11    5.19   -0.25
#  58   -2.46   -0.12    0.01    0.04   -0.03    0.00    0.00      -2.56    0.34   -0.24
#  59   -3.66   -0.44    0.37    0.32   -0.06    0.00    0.00      -3.47    1.39   -0.28
#  60   -2.46   -0.64    0.35    1.66   -0.09    0.00    0.00      -1.17    4.16   -0.22
#  61   -3.28   -0.67    0.38    2.08   -0.10    0.00    0.00      -1.59    5.75   -0.28
#  62   -4.10   -0.66    0.26    4.10   -0.10    0.00    0.00      -0.50    8.45   -0.20
#  63   -2.45   -0.26    0.02    1.28   -0.08    0.00    0.00      -1.49    4.33   -0.28
#  64   -5.00   -0.01    0.00    1.85    0.06    0.00    0.00      -3.10   12.54    0.44
#  65    0.32   -0.64    0.50    0.33   -0.06    0.00    0.00       0.45    1.21   -0.22
#  66   -1.09   -0.46    0.19    0.16   -0.10    0.00    0.00      -1.29    0.44   -0.27
#  67   -2.23   -0.38    0.10    0.73   -0.10    0.00    0.00      -1.87    2.04   -0.27
#  68   -2.14   -0.25    0.02    1.55   -0.08    0.00    0.00      -0.90    5.75   -0.28
#  69   -0.34   -0.55    0.73    0.66   -0.06    0.00    0.00       0.44    2.43   -0.21

@<TRIPOS>MOLECULE
          T541978        94
   69    71     0     0     0



@<TRIPOS>ATOM
      1 Cl1        -3.3320   -12.8638    89.2142 Cl         1          -0.0362
      2 C1         -2.6284   -11.3405    89.6596 C.ar       1          -0.0203
      3 C2         -1.2982   -11.2810    90.0420 C.ar       1          -0.0982
      4 C3         -0.7326   -10.0752    90.3969 C.ar       1          -0.0748
      5 C4         -1.5048    -8.9090    90.3702 C.ar       1          -0.0657
      6 C5         -0.9073    -7.6182    90.7475 C.2        1          -0.0077
      7 C6         -1.6993    -6.5896    91.1126 C.2        1          -0.2161
      8 C7         -1.1049    -5.3056    91.4879 C.2        1           0.5499
      9 O1          0.1040    -5.1663    91.4703 O.2        1          -0.5375
     10 N1         -1.8966    -4.2776    91.8528 N.am       1          -0.7316
     11 C8         -1.3017    -2.9926    92.2283 C.3        1           0.1175
     12 C9         -1.6922    -2.6510    93.6677 C.3        1          -0.1325
     13 C10        -1.1805    -3.7441    94.6080 C.3        1          -0.1155
     14 C11         0.3430    -3.8368    94.5012 C.3        1          -0.1492
     15 C12         0.8547    -4.9298    95.4414 C.3        1          -0.0194
     16 N2          2.3175    -5.0187    95.3388 N.4        1          -0.3651
     17 H1          2.6879    -4.0825    95.2717 H          1           0.4189
     18 C13         2.6507    -5.7355    94.1101 C.3        1          -0.0084
     19 C14         3.9890    -5.2518    93.5970 C.3        1          -0.1569
     20 C15         5.1046    -6.1669    94.1338 C.3        1           0.1125
     21 N3          4.8516    -6.5448    95.5388 N.am       1          -0.6320
     22 C16         4.3594    -5.5990    96.5195 C.3        1           0.0869
     23 C17         2.8122    -5.6099    96.5226 C.3        1          -0.0589
     24 C18         5.0873    -7.8150    95.9226 C.2        1           0.7009
     25 O2          4.4324    -8.3107    96.8191 O.2        1          -0.5382
     26 N4          6.0489    -8.5359    95.3127 N.am       1          -0.6832
     27 C19         6.7328    -9.5308    96.0205 C.ar       1           0.2046
     28 C20         6.6912   -10.8484    95.5844 C.ar       1          -0.1193
     29 C21         7.3676   -11.8279    96.2848 C.ar       1          -0.0290
     30 C22         8.0856   -11.4976    97.4194 C.ar       1          -0.0589
     31 C23         8.1287   -10.1865    97.8567 C.ar       1          -0.0295
     32 C24         7.4591    -9.2014    97.1574 C.ar       1          -0.1447
     33 N5          8.8094   -12.5499    98.1678 N.pl3      1           0.0303
     34 O3          9.4375   -12.2626    99.1600 O.2        1          -0.1503
     35 O4          8.7723   -13.6967    97.7867 O.3        1          -0.1522
     36 C25        -2.8469    -8.9754    89.9829 C.ar       1          -0.0827
     37 C26        -3.3988   -10.1884    89.6255 C.ar       1          -0.0345
     38 Cl2        -5.0627   -10.2729    89.1379 Cl         1          -0.0402
     39 H2         -0.7027   -12.1818    90.0623 H          1           0.1506
     40 H3          0.3043   -10.0309    90.6954 H          1           0.1476
     41 H4          0.1655    -7.4945    90.7319 H          1           0.1444
     42 H5         -2.7720    -6.7132    91.1281 H          1           0.1314
     43 H6         -2.8600    -4.3887    91.8670 H          1           0.4026
     44 H7         -0.2164    -3.0585    92.1523 H          1           0.0702
     45 H8         -1.6663    -2.2139    91.5585 H          1           0.0705
     46 H9         -1.2496    -1.6949    93.9472 H          1           0.0752
     47 H10        -2.7775    -2.5851    93.7437 H          1           0.0743
     48 H11        -1.4587    -3.5009    95.6335 H          1           0.0791
     49 H12        -1.6230    -4.7003    94.3286 H          1           0.0803
     50 H13         0.6211    -4.0800    93.4758 H          1           0.0904
     51 H14         0.7854    -2.8806    94.7805 H          1           0.0884
     52 H15         0.5766    -4.6865    96.4669 H          1           0.1316
     53 H16         0.4121    -5.8859    95.1620 H          1           0.1365
     54 H17         2.7047    -6.8047    94.3157 H          1           0.1309
     55 H18         1.8834    -5.5471    93.3593 H          1           0.1395
     56 H19         3.9912    -5.2769    92.5073 H          1           0.1297
     57 H20         4.1612    -4.2307    93.9374 H          1           0.0909
     58 H21         5.1519    -7.0689    93.5237 H          1           0.1145
     59 H22         6.0584    -5.6428    94.0705 H          1           0.0907
     60 H23         4.7265    -5.8775    97.5074 H          1           0.1183
     61 H24         4.7163    -4.5998    96.2699 H          1           0.1131
     62 H25         2.4511    -5.0488    97.3845 H          1           0.1514
     63 H26         2.4560    -6.6378    96.5888 H          1           0.1301
     64 H27         6.2670    -8.3653    94.3831 H          1           0.4097
     65 H28         6.1302   -11.1071    94.6984 H          1           0.1565
     66 H29         7.3353   -12.8530    95.9463 H          1           0.1613
     67 H30         8.6901    -9.9317    98.7434 H          1           0.1621
     68 H31         7.4967    -8.1769    97.4969 H          1           0.1492
     69 H32        -3.4488    -8.0789    89.9604 H          1           0.1458
@<TRIPOS>BOND
     1    1    2 1
     2    2   37 ar
     3    2    3 ar
     4    3    4 ar
     5    3   39 1
     6    4    5 ar
     7    4   40 1
     8    5    6 1
     9    5   36 ar
    10    6    7 2
    11    6   41 1
    12    7    8 1
    13    7   42 1
    14    8    9 2
    15    8   10 am
    16   10   11 1
    17   10   43 1
    18   11   12 1
    19   11   44 1
    20   11   45 1
    21   12   13 1
    22   12   46 1
    23   12   47 1
    24   13   14 1
    25   13   48 1
    26   13   49 1
    27   14   15 1
    28   14   50 1
    29   14   51 1
    30   15   16 1
    31   15   52 1
    32   15   53 1
    33   16   17 1
    34   16   23 1
    35   16   18 1
    36   18   19 1
    37   18   54 1
    38   18   55 1
    39   19   20 1
    40   19   56 1
    41   19   57 1
    42   20   21 1
    43   20   58 1
    44   20   59 1
    45   21   22 1
    46   21   24 am
    47   22   23 1
    48   22   60 1
    49   22   61 1
    50   23   62 1
    51   23   63 1
    52   24   25 2
    53   24   26 am
    54   26   27 1
    55   26   64 1
    56   27   32 ar
    57   27   28 ar
    58   28   29 ar
    59   28   65 1
    60   29   30 ar
    61   29   66 1
    62   30   31 ar
    63   30   33 1
    64   31   32 ar
    65   31   67 1
    66   32   68 1
    67   33   34 2
    68   33   35 1
    69   36   37 ar
    70   36   69 1
    71   37   38 1
##########                 Name:              T525535
##########          Protonation:                   97
##########               SMILES:   (Cc1ccc(cc1)OCC[NH2+]C[C@@H](c2cccc(c2)Cl)O)[NH2+]C[C@@H](c3ccc(c(c3)Cl)Cl)O
##########            Long Name:   2-(3,4-dichlorophenyl)-2-hydroxy-ethyl]ammonio]propyl]phenoxy]ethyl]ammonium
##########          FlexRecCode: 1
##########               Number:                  263
##########   Ligand Source File: /raidb/db2/rgc/tcams/tcams-0000033.db2.gz
##########           GlobalRank: 395
##########                 Rank:                    1
##########               Setnum:                  138
##########             Matchnum:                 3952
##########                Cloud:                    1
##########        Electrostatic:           -33.594490
##########        Van der Waals:           -30.320698
##########  Ligand Polar Desolv:             3.229295
########## Ligand Apolar Desolv:            -3.569628
##########      Internal Energy:             0.000000
##########      Receptor Energy: 0.0
########## Receptor Desolvation:             0.000000
########## Receptor Hydrophobic:             0.000000
##########         Total Energy: -64.26
##########        Ligand Charge:             2.000000
##########            Arbitrary:    +999.9990
##########     heavy atom count:   35
##########           pose count:    1
##########        Ligand Energy:             0.000000
# num electro vdwattr vdwrepu polsolv apolsol rdesolv rhydroe totalscore fullpol fullapo
#   1    4.85   -1.16    0.16   -3.32   -0.09    0.00    0.00       0.44   -7.25   -0.19
#   2   -0.67   -0.55    0.02    1.03   -0.08    0.00    0.00      -0.25    3.20   -0.24
#   3    2.29   -0.73    0.06   -1.22   -0.07    0.00    0.00       0.33   -3.65   -0.21
#   4    2.36   -0.88    0.12   -1.12   -0.08    0.00    0.00       0.40   -4.57   -0.33
#   5    1.04   -0.61    0.03   -0.69   -0.08    0.00    0.00      -0.31   -3.21   -0.38
#   6    0.35   -0.45    0.02   -0.96   -0.08    0.00    0.00      -1.12   -5.63   -0.46
#   7   -0.31   -0.47    0.05    0.60   -0.05    0.00    0.00      -0.18    3.84   -0.31
#   8    0.47   -0.24    0.00   -1.39    0.10    0.00    0.00      -1.04  -11.57    0.85
#   9   -0.03   -0.11    0.00    0.01   -0.01    0.00    0.00      -0.14    0.11   -0.09
#  10    0.00   -0.10    0.00    0.06   -0.03    0.00    0.00      -0.06    1.06   -0.43
#  11    0.58   -0.10    0.00   -1.07    0.04    0.00    0.00      -0.55  -21.43    0.73
#  12   -0.62    0.00    0.00    0.68    0.02    0.00    0.00       0.07   20.05    0.50
#  13   -0.42    0.00    0.00    0.50    0.01    0.00    0.00       0.08   21.65    0.57
#  14    0.05   -0.08    0.00   -0.03   -0.02    0.00    0.00      -0.09   -0.53   -0.38
#  15   -0.17   -0.09    0.00    0.30   -0.01    0.00    0.00       0.04    5.27   -0.15
#  16    0.61   -0.06    0.00   -0.80    0.06    0.00    0.00      -0.19  -19.76    1.61
#  17    0.24   -0.31    0.01   -0.28   -0.04    0.00    0.00      -0.38   -2.43   -0.34
#  18    0.19   -0.62    0.03   -0.57   -0.10    0.00    0.00      -1.07   -2.42   -0.44
#  19    0.24   -1.38    0.25   -1.04   -0.18    0.00    0.00      -2.12   -2.73   -0.47
#  20    0.29   -1.75    0.70   -1.01   -0.17    0.00    0.00      -1.95   -2.75   -0.46
#  21    0.10   -0.85    0.13   -0.34   -0.07    0.00    0.00      -1.02   -1.50   -0.30
#  22    0.19   -1.86    0.31   -0.50   -0.26    0.00    0.00      -2.12   -1.89   -0.99
#  23    0.22   -0.35    0.02   -0.32   -0.06    0.00    0.00      -0.49   -2.42   -0.44
#  24    1.78   -0.99    0.30   -1.69   -0.10    0.00    0.00      -0.69   -7.13   -0.42
#  25    1.11   -1.48    0.60   -0.89   -0.13    0.00    0.00      -0.78   -3.17   -0.45
#  26   12.69   -0.69    0.03   -6.42    0.19    0.00    0.00       5.80  -20.82    0.62
#  27  -12.19   -0.01    0.00    2.79    0.05    0.00    0.00      -9.36   19.47    0.38
#  28  -12.95   -0.02    0.00    4.98    0.14    0.00    0.00      -7.85   20.35    0.56
#  29    0.78   -0.54    0.03   -0.34   -0.10    0.00    0.00      -0.16   -1.19   -0.36
#  30   -2.94   -0.58    0.03    1.74   -0.05    0.00    0.00      -1.80    5.62   -0.15
#  31   15.22   -0.94    0.17   -5.69    0.44    0.00    0.00       9.21  -20.81    1.61
#  32    1.67   -1.03    0.09   -0.74   -0.11    0.00    0.00      -0.12   -2.25   -0.34
#  33    1.18   -1.27    0.11   -0.72   -0.18    0.00    0.00      -0.89   -1.81   -0.44
#  34    0.94   -1.58    0.29   -1.11   -0.19    0.00    0.00      -1.65   -2.68   -0.46
#  35    0.12   -1.30    0.14   -0.57   -0.11    0.00    0.00      -1.73   -1.51   -0.30
#  36    0.15   -2.84    0.38   -0.91   -0.51    0.00    0.00      -3.73   -1.69   -0.95
#  37    0.16   -1.21    0.15   -0.49   -0.10    0.00    0.00      -1.48   -1.53   -0.30
#  38    0.13   -2.35    0.45   -0.55   -0.31    0.00    0.00      -2.63   -1.70   -0.95
#  39    0.61   -1.12    0.17   -0.62   -0.12    0.00    0.00      -1.08   -2.17   -0.44
#  40   -1.90   -0.34    0.05    1.36   -0.08    0.00    0.00      -0.92    3.45   -0.21
#  41   -2.31   -0.71    0.34    1.40   -0.12    0.00    0.00      -1.41    3.14   -0.28
#  42   -3.55   -0.47    0.15    0.84   -0.12    0.00    0.00      -3.15    1.96   -0.28
#  43   -2.31   -0.13    0.00    0.79   -0.03    0.00    0.00      -1.67    6.90   -0.28
#  44   -3.00   -0.23    0.02    0.75   -0.07    0.00    0.00      -2.54    2.99   -0.28
#  45   -2.71   -0.40    0.10    1.38   -0.09    0.00    0.00      -1.71    4.31   -0.28
#  46   -2.15   -0.16    0.02    1.04   -0.04    0.00    0.00      -1.29    6.63   -0.28
#  47   -0.29   -0.08    0.00    0.32   -0.02    0.00    0.00      -0.07    4.10   -0.28
#  48   -0.10   -0.03    0.00    0.17   -0.01    0.00    0.00       0.03    5.21   -0.26
#  49   -0.16   -0.04    0.00    0.12   -0.01    0.00    0.00      -0.09    2.81   -0.26
#  50   -0.15   -0.02    0.00    0.22   -0.01    0.00    0.00       0.05    8.54   -0.28
#  51   -0.15   -0.05    0.00    0.27   -0.01    0.00    0.00       0.06    6.01   -0.28
#  52   -0.12   -0.01    0.00    0.16   -0.01    0.00    0.00       0.01    7.38   -0.28
#  53   -0.16   -0.05    0.00    0.35   -0.01    0.00    0.00       0.13    6.81   -0.28
#  54   -0.13   -0.03    0.00    0.17   -0.01    0.00    0.00       0.01    6.02   -0.28
#  55   -0.47    0.00    0.00    0.34    0.02    0.00    0.00      -0.10   15.08    1.00
#  56   -0.19   -0.11    0.00    0.61   -0.02    0.00    0.00       0.29    6.33   -0.23
#  57   -0.36   -0.39    0.06    1.02   -0.11    0.00    0.00       0.21    2.56   -0.28
#  58   -0.59   -0.52    0.26    0.33   -0.10    0.00    0.00      -0.61    0.94   -0.28
#  59   -0.31   -0.04    0.00    0.17   -0.01    0.00    0.00      -0.18    4.62   -0.28
#  60   -1.24   -0.18    0.02    0.93   -0.04    0.00    0.00      -0.52    4.72   -0.22
#  61   -4.41   -0.45    0.15    1.21   -0.08    0.00    0.00      -3.58    4.02   -0.28
#  62   -2.16   -0.20    0.01    1.53   -0.05    0.00    0.00      -0.87    6.68   -0.22
#  63   -0.86   -0.22    0.07    1.22   -0.04    0.00    0.00       0.16    7.85   -0.28
#  64   -3.68   -0.23    0.02    1.61   -0.07    0.00    0.00      -2.36    6.05   -0.28
#  65  -15.26   -0.03    0.00    3.53    0.21    0.00    0.00     -11.55   16.79    1.00
#  66   -2.10   -0.28    0.03    2.41   -0.07    0.00    0.00      -0.01    8.22   -0.23
#  67   -1.99   -0.42    0.16    0.96   -0.09    0.00    0.00      -1.37    3.10   -0.28
#  68   -1.11   -0.16    0.01    0.74   -0.04    0.00    0.00      -0.55    5.03   -0.28

@<TRIPOS>MOLECULE
          T525535        97
   68    70     0     0     0



@<TRIPOS>ATOM
      1 C1          2.0416    -5.3494    96.3239 C.3        1          -0.1873
      2 C2          2.3631    -5.7618    94.8859 C.3        1           0.0305
      3 C3          1.6912    -4.7894    93.9144 C.3        1          -0.1004
      4 C4          1.5793    -5.4332    92.5563 C.ar       1          -0.1491
      5 C5          0.4555    -6.1710    92.2329 C.ar       1          -0.0956
      6 C6          0.3503    -6.7622    90.9888 C.ar       1          -0.1295
      7 C7          1.3734    -6.6146    90.0634 C.ar       1           0.1323
      8 O1          1.2722    -7.1949    88.8387 O.3        1          -0.3245
      9 C8          0.5170    -8.4051    88.7543 C.3        1           0.0241
     10 C9          0.5155    -8.9056    87.3085 C.3        1          -0.0014
     11 N1          1.8966    -9.1591    86.8767 N.4        1          -0.5060
     12 H1          2.4298    -8.3048    86.9362 H          1           0.4369
     13 H2          2.3128    -9.8578    87.4740 H          1           0.4285
     14 C10         1.8950    -9.6397    85.4886 C.3        1          -0.0452
     15 C11         3.3334    -9.9039    85.0387 C.3        1           0.1388
     16 O2          4.0638   -10.5072    86.1085 O.3        1          -0.5469
     17 C12         3.9872    -8.6012    84.6558 C.ar       1          -0.1352
     18 C13         3.9085    -8.1452    83.3530 C.ar       1          -0.1036
     19 C14         4.5075    -6.9502    83.0011 C.ar       1          -0.0951
     20 C15         5.1862    -6.2106    83.9516 C.ar       1          -0.0885
     21 C16         5.2652    -6.6665    85.2553 C.ar       1          -0.0312
     22 Cl1         6.1168    -5.7381    86.4497 Cl         1          -0.0442
     23 C17         4.6605    -7.8600    85.6082 C.ar       1          -0.0950
     24 C18         2.4997    -5.8735    90.3903 C.ar       1          -0.1933
     25 C19         2.5978    -5.2804    91.6340 C.ar       1          -0.0611
     26 N2          3.8175    -5.7317    94.6815 N.4        1          -0.5059
     27 H3          4.0171    -5.6757    93.6940 H          1           0.4262
     28 H4          4.2064    -4.9267    95.1494 H          1           0.4279
     29 C20         4.4149    -6.9549    95.2334 C.3        1          -0.0485
     30 C21         5.9297    -6.9235    95.0204 C.3        1           0.1380
     31 O3          6.2126    -6.8442    93.6219 O.3        1          -0.5443
     32 C22         6.5428    -8.1784    95.5865 C.ar       1          -0.1307
     33 C23         6.9612    -8.2093    96.9039 C.ar       1          -0.0920
     34 C24         7.5237    -9.3595    97.4244 C.ar       1          -0.0903
     35 C25         7.6679   -10.4809    96.6271 C.ar       1          -0.0170
     36 Cl2         8.3737   -11.9261    97.2805 Cl         1          -0.0199
     37 C26         7.2484   -10.4501    95.3081 C.ar       1          -0.0294
     38 Cl3         7.4280   -11.8566    94.3066 Cl         1          -0.0212
     39 C27         6.6812    -9.2994    94.7902 C.ar       1          -0.0810
     40 H5          2.5203    -6.0422    97.0161 H          1           0.0851
     41 H6          2.4129    -4.3408    96.5043 H          1           0.0870
     42 H7          0.9625    -5.3718    96.4756 H          1           0.1106
     43 H8          1.9916    -6.7705    94.7055 H          1           0.1396
     44 H9          0.6957    -4.5391    94.2810 H          1           0.1247
     45 H10         2.2889    -3.8812    93.8375 H          1           0.1024
     46 H11        -0.3406    -6.2856    92.9537 H          1           0.1352
     47 H12        -0.5273    -7.3390    90.7370 H          1           0.1427
     48 H13         0.9668    -9.1596    89.3996 H          1           0.0909
     49 H14        -0.5077    -8.2170    89.0749 H          1           0.1148
     50 H15        -0.0605    -9.8287    87.2444 H          1           0.1569
     51 H16         0.0658    -8.1510    86.6633 H          1           0.1463
     52 H17         1.3190   -10.5629    85.4242 H          1           0.1487
     53 H18         1.4453    -8.8851    84.8433 H          1           0.1409
     54 H19         3.3279   -10.5740    84.1791 H          1           0.1338
     55 H20         4.9861   -10.7031    85.8937 H          1           0.3900
     56 H21         3.3790    -8.7228    82.6098 H          1           0.1291
     57 H22         4.4458    -6.5944    81.9833 H          1           0.1436
     58 H23         5.6549    -5.2773    83.6764 H          1           0.1450
     59 H24         4.7184    -8.2144    86.6268 H          1           0.1382
     60 H25         3.2975    -5.7575    89.6716 H          1           0.1367
     61 H26         3.4726    -4.6998    91.8874 H          1           0.1381
     62 H27         4.1993    -7.0153    96.3001 H          1           0.1509
     63 H28         3.9949    -7.8244    94.7278 H          1           0.1379
     64 H29         6.3498    -6.0539    95.5260 H          1           0.1380
     65 H30         5.8475    -6.0595    93.1906 H          1           0.3861
     66 H31         6.8489    -7.3340    97.5266 H          1           0.1361
     67 H32         7.8510    -9.3827    98.4533 H          1           0.1521
     68 H33         6.3501    -9.2760    93.7624 H          1           0.1486
@<TRIPOS>BOND
     1    1    2 1
     2    1   40 1
     3    1   41 1
     4    1   42 1
     5    2    3 1
     6    2   26 1
     7    2   43 1
     8    3    4 1
     9    3   44 1
    10    3   45 1
    11    4   25 ar
    12    4    5 ar
    13    5    6 ar
    14    5   46 1
    15    6    7 ar
    16    6   47 1
    17    7    8 1
    18    7   24 ar
    19    8    9 1
    20    9   10 1
    21    9   48 1
    22    9   49 1
    23   10   11 1
    24   10   50 1
    25   10   51 1
    26   11   12 1
    27   11   13 1
    28   11   14 1
    29   14   15 1
    30   14   52 1
    31   14   53 1
    32   15   16 1
    33   15   17 1
    34   15   54 1
    35   16   55 1
    36   17   23 ar
    37   17   18 ar
    38   18   19 ar
    39   18   56 1
    40   19   20 ar
    41   19   57 1
    42   20   21 ar
    43   20   58 1
    44   21   22 1
    45   21   23 ar
    46   23   59 1
    47   24   25 ar
    48   24   60 1
    49   25   61 1
    50   26   27 1
    51   26   28 1
    52   26   29 1
    53   29   30 1
    54   29   62 1
    55   29   63 1
    56   30   31 1
    57   30   32 1
    58   30   64 1
    59   31   65 1
    60   32   39 ar
    61   32   33 ar
    62   33   34 ar
    63   33   66 1
    64   34   35 ar
    65   34   67 1
    66   35   36 1
    67   35   37 ar
    68   37   38 1
    69   37   39 ar
    70   39   68 1
##########                 Name:              T527144
##########          Protonation:                   99
##########               SMILES:   )C(=O)OC)[NH2+]C[C@H](c2ccc(cc2)[C@H](C[NH2+][C@@H](C)Cc3ccc(cc3)C(=O)OC)O)O
##########            Long Name:   thyl]phenyl]ethyl]-[(1R)-2-(4-methoxycarbonylphenyl)-1-methyl-ethyl]ammonium
##########          FlexRecCode: 1
##########               Number:                   91
##########   Ligand Source File: /raidb/db2/rgc/tcams/tcams-0000240.db2.gz
##########           GlobalRank: 397
##########                 Rank:                    1
##########               Setnum:                  284
##########             Matchnum:                 4629
##########                Cloud:                    1
##########        Electrostatic:           -46.563473
##########        Van der Waals:           -24.722422
##########  Ligand Polar Desolv:             9.077868
########## Ligand Apolar Desolv:            -2.043563
##########      Internal Energy:             0.000000
##########      Receptor Energy: 0.0
########## Receptor Desolvation:             0.000000
########## Receptor Hydrophobic:             0.000000
##########         Total Energy: -64.25
##########        Ligand Charge:             2.000000
##########            Arbitrary:    +999.9990
##########     heavy atom count:   40
##########           pose count:    1
##########        Ligand Energy:             0.000000
# num electro vdwattr vdwrepu polsolv apolsol rdesolv rhydroe totalscore fullpol fullapo
#   1   -0.02   -1.09    0.23    0.10    0.02    0.00    0.00      -0.76    0.24    0.04
#   2    0.37   -0.53    0.02   -1.04    0.08    0.00    0.00      -1.09   -3.88    0.31
#   3   -0.57   -0.75    0.06    1.29   -0.04    0.00    0.00       0.00    5.04   -0.16
#   4    0.46   -1.98    0.87   -1.55   -0.14    0.00    0.00      -2.34   -4.20   -0.39
#   5    0.13   -0.32    0.01   -0.42   -0.06    0.00    0.00      -0.66   -3.13   -0.41
#   6    0.07   -0.37    0.02   -0.23   -0.06    0.00    0.00      -0.57   -1.60   -0.46
#   7    0.15   -0.18    0.00   -0.22   -0.03    0.00    0.00      -0.28   -3.06   -0.45
#   8    0.10   -0.08    0.00   -0.03   -0.01    0.00    0.00      -0.03   -0.73   -0.33
#   9    0.08   -0.03    0.00   -0.12   -0.01    0.00    0.00      -0.08   -3.82   -0.21
#  10   -0.02   -0.03    0.00    0.09   -0.01    0.00    0.00       0.03    2.88   -0.24
#  11    0.11   -0.03    0.00   -0.19   -0.01    0.00    0.00      -0.12   -7.07   -0.19
#  12    0.34   -0.05    0.00   -0.74    0.02    0.00    0.00      -0.43  -20.40    0.62
#  13   -0.32    0.00    0.00    0.36    0.01    0.00    0.00       0.05   17.39    0.38
#  14   -0.22    0.00    0.00    0.38    0.01    0.00    0.00       0.17   20.01    0.56
#  15    0.04   -0.05    0.00   -0.04   -0.02    0.00    0.00      -0.07   -0.98   -0.36
#  16   -0.04   -0.16    0.01    0.42   -0.01    0.00    0.00       0.22    4.69   -0.15
#  17    0.01   -0.65    0.30   -2.56    0.21    0.00    0.00      -2.69  -19.34    1.61
#  18    0.33   -0.24    0.01   -0.36   -0.03    0.00    0.00      -0.28   -3.92   -0.34
#  19    0.14   -0.26    0.02   -0.43   -0.04    0.00    0.00      -0.58   -4.36   -0.44
#  20    0.44   -0.24    0.00   -0.40   -0.04    0.00    0.00      -0.24   -4.19   -0.45
#  21    1.52   -0.40    0.01   -0.65   -0.06    0.00    0.00       0.42   -3.94   -0.35
#  22    1.78   -0.46    0.03   -0.67   -0.07    0.00    0.00       0.61   -4.32   -0.44
#  23    0.96   -0.25    0.01   -0.42   -0.05    0.00    0.00       0.25   -4.21   -0.45
#  24   -2.30   -0.74    0.16    1.29   -0.04    0.00    0.00      -1.63    4.84   -0.14
#  25   18.51   -3.13    2.27   -7.51    0.63    0.00    0.00      10.77  -19.64    1.64
#  26    1.06   -0.65    0.08   -0.29   -0.10    0.00    0.00       0.11   -1.07   -0.36
#  27   18.77   -1.46    0.61   -6.80    0.21    0.00    0.00      11.32  -20.51    0.62
#  28  -15.28   -0.02    0.00    3.16    0.07    0.00    0.00     -12.07   17.81    0.39
#  29  -22.72   -0.08    0.01    7.42    0.20    0.00    0.00     -15.18   20.48    0.56
#  30   -0.96   -0.84    0.07    1.14   -0.09    0.00    0.00      -0.69    2.88   -0.24
#  31    6.30   -2.43    1.58   -3.56   -0.10    0.00    0.00       1.80   -7.02   -0.19
#  32    3.49   -1.13    0.20   -1.75   -0.10    0.00    0.00       0.71   -3.81   -0.21
#  33    2.20   -0.98    0.06   -0.24   -0.11    0.00    0.00       0.93   -0.69   -0.33
#  34    2.54   -1.06    0.14   -0.86   -0.13    0.00    0.00       0.64   -2.93   -0.45
#  35    0.53   -1.07    0.17   -0.49   -0.13    0.00    0.00      -0.98   -1.77   -0.46
#  36    0.65   -1.35    0.27   -1.02   -0.13    0.00    0.00      -1.58   -3.10   -0.41
#  37    0.35   -1.74    0.38   -0.50   -0.18    0.00    0.00      -1.69   -1.31   -0.46
#  38    2.26   -1.21    0.11   -1.29   -0.15    0.00    0.00      -0.29   -3.38   -0.38
#  39   -1.12   -1.88    0.52    1.79   -0.06    0.00    0.00      -0.74    4.94   -0.16
#  40   -0.39   -3.44    1.79   -1.58   -0.18    0.00    0.00      -3.79   -3.52   -0.39
#  41    1.73   -1.01    0.10   -1.35    0.10    0.00    0.00      -0.43   -4.08    0.31
#  42   -0.29   -1.26    0.36    0.11    0.02    0.00    0.00      -1.07    0.25    0.04
#  43    0.14   -0.09    0.00   -0.13   -0.02    0.00    0.00      -0.09   -3.24   -0.38
#  44    0.05   -0.15    0.00   -0.09   -0.03    0.00    0.00      -0.22   -1.56   -0.46
#  45   -0.07   -0.39    0.14    0.62   -0.08    0.00    0.00       0.22    2.17   -0.28
#  46   -0.04   -0.70    0.63    0.13   -0.11    0.00    0.00      -0.09    0.32   -0.28
#  47   -0.02   -0.34    0.05    0.27   -0.12    0.00    0.00      -0.16    0.64   -0.28
#  48   -0.24   -0.14    0.02    0.27   -0.04    0.00    0.00      -0.13    2.00   -0.27
#  49   -0.19   -0.04    0.00    0.19   -0.01    0.00    0.00      -0.05    5.02   -0.28
#  50   -0.06   -0.01    0.00    0.08    0.00    0.00    0.00       0.01    5.31   -0.28
#  51   -0.09   -0.01    0.00    0.08   -0.01    0.00    0.00      -0.03    4.04   -0.28
#  52   -0.15   -0.01    0.00    0.14   -0.01    0.00    0.00      -0.04    6.51   -0.28
#  53   -0.05   -0.01    0.00    0.05    0.00    0.00    0.00      -0.01    3.58   -0.28
#  54   -0.05   -0.01    0.00    0.03    0.00    0.00    0.00      -0.03    2.27   -0.28
#  55   -0.04   -0.01    0.00    0.08    0.00    0.00    0.00       0.02    4.04   -0.21
#  56   -0.10   -0.01    0.00    0.14    0.00    0.00    0.00       0.02    7.38   -0.22
#  57   -0.33   -0.01    0.00    0.14   -0.01    0.00    0.00      -0.21    6.44   -0.28
#  58   -0.34   -0.04    0.00    0.27   -0.01    0.00    0.00      -0.13    5.43   -0.28
#  59   -0.04   -0.01    0.00    1.10    0.08    0.00    0.00       1.13   13.88    1.00
#  60   -0.06   -0.05    0.00    0.26   -0.01    0.00    0.00       0.13    4.71   -0.23
#  61   -0.38   -0.04    0.00    0.20   -0.01    0.00    0.00      -0.23    4.71   -0.28
#  62   -3.97   -0.23    0.06    0.81   -0.04    0.00    0.00      -3.37    4.95   -0.24
#  63   -1.60   -0.04    0.00    0.19   -0.01    0.00    0.00      -1.47    4.76   -0.28
#  64   -1.06   -0.25    0.11    0.98   -0.05    0.00    0.00      -0.27    5.69   -0.28
#  65  -20.04   -0.11    0.01    5.20    0.37    0.00    0.00     -14.56   14.10    1.01
#  66   -3.12   -0.30    0.08    1.69   -0.05    0.00    0.00      -1.70    7.19   -0.22
#  67   -2.26   -0.09    0.00    0.51   -0.02    0.00    0.00      -1.86    6.39   -0.28
#  68   -3.41   -0.15    0.00    0.80   -0.04    0.00    0.00      -2.79    6.17   -0.28
#  69   -2.59   -1.53    2.74    1.89   -0.10    0.00    0.00       0.40    3.94   -0.21
#  70   -4.56   -0.99    0.57    1.19   -0.16    0.00    0.00      -3.94    2.11   -0.28
#  71   -2.51   -0.63    0.25    1.47   -0.11    0.00    0.00      -1.54    3.73   -0.28
#  72   -4.82   -0.65    0.67    2.38   -0.12    0.00    0.00      -2.54    5.68   -0.28
#  73   -3.83   -0.75    0.64    1.43   -0.11    0.00    0.00      -2.63    3.74   -0.28
#  74   -4.52   -0.31    0.10    1.03   -0.07    0.00    0.00      -3.78    4.37   -0.28
#  75   -1.69   -0.22    0.06    0.13   -0.04    0.00    0.00      -1.77    0.78   -0.26
#  76   -0.56   -0.85    0.66    1.21   -0.10    0.00    0.00       0.36    3.14   -0.27
#  77   -2.19   -0.34    0.05    2.91   -0.10    0.00    0.00       0.33    8.15   -0.28
#  78   -1.67   -0.39    0.15    0.69   -0.08    0.00    0.00      -1.29    2.48   -0.28
#  79   -0.68   -0.29    0.03    0.09   -0.10    0.00    0.00      -0.95    0.26   -0.28
#  80   -0.29   -1.15    2.79    0.23   -0.11    0.00    0.00       1.47    0.57   -0.28
#  81   -0.11   -0.01    0.00    0.15   -0.01    0.00    0.00       0.03    7.34   -0.28
#  82   -0.18   -0.03    0.00    0.06   -0.01    0.00    0.00      -0.15    1.75   -0.26

@<TRIPOS>MOLECULE
          T527144        99
   82    84     0     0     0



@<TRIPOS>ATOM
      1 C1         -0.5281    -4.7290    88.0632 C.3        1           0.0324
      2 O1         -0.0393    -6.0586    87.8752 O.3        1          -0.3477
      3 C2          0.7252    -6.2811    86.7886 C.2        1           0.4976
      4 O2          0.9701    -5.3715    86.0216 O.2        1          -0.4907
      5 C3          1.2655    -7.6315    86.5297 C.ar       1          -0.1049
      6 C4          2.0631    -7.8643    85.4075 C.ar       1          -0.0495
      7 C5          2.5649    -9.1275    85.1719 C.ar       1          -0.1158
      8 C6          2.2790   -10.1626    86.0445 C.ar       1          -0.0971
      9 C7          2.8308   -11.5400    85.7807 C.3        1          -0.1049
     10 C8          4.1941   -11.6820    86.4604 C.3        1           0.0303
     11 C9          4.7542   -13.0804    86.1925 C.3        1          -0.1845
     12 N1          4.0424   -11.4844    87.9081 N.4        1          -0.5072
     13 H1          3.3905   -10.7335    88.0786 H          1           0.4305
     14 H2          3.6952   -12.3333    88.3288 H          1           0.4273
     15 C10         5.3455   -11.1444    88.4952 C.3        1          -0.0467
     16 C11         5.1874   -10.9386    90.0029 C.3        1           0.1288
     17 O3          4.2897   -11.9196    90.5263 O.3        1          -0.5430
     18 C12         4.6359    -9.5613    90.2669 C.ar       1          -0.1181
     19 C13         3.2692    -9.3647    90.3306 C.ar       1          -0.0989
     20 C14         2.7632    -8.1012    90.5727 C.ar       1          -0.0915
     21 C15         3.6240    -7.0345    90.7515 C.ar       1          -0.1184
     22 C16         4.9908    -7.2313    90.6886 C.ar       1          -0.0996
     23 C17         5.4969    -8.4955    90.4508 C.ar       1          -0.0927
     24 C18         3.0724    -5.6570    91.0144 C.3        1           0.1294
     25 O4          3.9708    -4.6763    90.4917 O.3        1          -0.5424
     26 C19         2.9131    -5.4506    92.5220 C.3        1          -0.0470
     27 N2          4.2156    -5.1108    93.1101 N.4        1          -0.5073
     28 H3          4.8675    -5.8620    92.9405 H          1           0.4310
     29 H4          4.5635    -4.2621    92.6894 H          1           0.4269
     30 C20         4.0626    -4.9124    94.5575 C.3        1           0.0301
     31 C21         3.5027    -3.5139    94.8243 C.3        1          -0.1845
     32 C22         5.4252    -5.0547    95.2387 C.3        1          -0.1047
     33 C23         5.7523    -6.5161    95.4073 C.ar       1          -0.0969
     34 C24         6.4380    -7.1878    94.4108 C.ar       1          -0.1138
     35 C25         6.7410    -8.5254    94.5588 C.ar       1          -0.0430
     36 C26         6.3540    -9.2015    95.7175 C.ar       1          -0.1046
     37 C27         5.6623    -8.5175    96.7192 C.ar       1          -0.0493
     38 C28         5.3704    -7.1787    96.5604 C.ar       1          -0.1527
     39 C29         6.6746   -10.6340    95.8828 C.2        1           0.4967
     40 O5          6.3367   -11.2195    96.8920 O.2        1          -0.4878
     41 O6          7.3418   -11.2911    94.9144 O.3        1          -0.3492
     42 C30         7.6181   -12.6746    95.1410 C.3        1           0.0322
     43 C31         1.4894    -9.9389    87.1584 C.ar       1          -0.1501
     44 C32         0.9859    -8.6792    87.4091 C.ar       1          -0.0433
     45 H5         -1.1278    -4.6875    88.9725 H          1           0.1111
     46 H6          0.3133    -4.0416    88.1513 H          1           0.0674
     47 H7         -1.1425    -4.4436    87.2094 H          1           0.0655
     48 H8          2.2864    -7.0574    84.7253 H          1           0.1497
     49 H9          3.1818    -9.3089    84.3044 H          1           0.1409
     50 H10         2.1461   -12.2881    86.1797 H          1           0.1039
     51 H11         2.9433   -11.6866    84.7065 H          1           0.1283
     52 H12         4.8790   -10.9337    86.0613 H          1           0.1423
     53 H13         5.7256   -13.1816    86.6768 H          1           0.0861
     54 H14         4.0696   -13.8287    86.5917 H          1           0.1117
     55 H15         4.8668   -13.2271    85.1183 H          1           0.0818
     56 H16         6.0496   -11.9557    88.3109 H          1           0.1480
     57 H17         5.7205   -10.2274    88.0406 H          1           0.1371
     58 H18         6.1588   -11.0399    90.4872 H          1           0.1361
     59 H19         4.5819   -12.8315    90.3919 H          1           0.3891
     60 H20         2.5966   -10.1980    90.1911 H          1           0.1319
     61 H21         1.6953    -7.9474    90.6218 H          1           0.1370
     62 H22         5.6634    -6.3978    90.8278 H          1           0.1316
     63 H23         6.5648    -8.6499    90.4053 H          1           0.1370
     64 H24         2.1016    -5.5556    90.5292 H          1           0.1347
     65 H25         4.8563    -4.7079    90.8792 H          1           0.3895
     66 H26         2.2088    -4.6391    92.7052 H          1           0.1476
     67 H27         2.5372    -6.3673    92.9765 H          1           0.1373
     68 H28         3.3771    -5.6603    94.9563 H          1           0.1423
     69 H29         3.3891    -3.3667    95.8985 H          1           0.0817
     70 H30         4.1880    -2.7659    94.4257 H          1           0.1117
     71 H31         2.5320    -3.4124    94.3391 H          1           0.0860
     72 H32         6.1900    -4.5798    94.6242 H          1           0.1040
     73 H33         5.3945    -4.5741    96.2165 H          1           0.1282
     74 H34         6.7364    -6.6638    93.5148 H          1           0.1418
     75 H35         7.2761    -9.0485    93.7800 H          1           0.1487
     76 H36         5.3601    -9.0345    97.6180 H          1           0.1489
     77 H37         4.8390    -6.6474    97.3362 H          1           0.1318
     78 H38         8.1583   -13.0820    94.2864 H          1           0.1104
     79 H39         8.2258   -12.7814    96.0395 H          1           0.0675
     80 H40         6.6808   -13.2160    95.2699 H          1           0.0657
     81 H41         1.2700   -10.7513    87.8354 H          1           0.1330
     82 H42         0.3733    -8.5049    88.2815 H          1           0.1479
@<TRIPOS>BOND
     1    1    2 1
     2    1   45 1
     3    1   46 1
     4    1   47 1
     5    2    3 1
     6    3    4 2
     7    3    5 1
     8    5   44 ar
     9    5    6 ar
    10    6    7 ar
    11    6   48 1
    12    7    8 ar
    13    7   49 1
    14    8    9 1
    15    8   43 ar
    16    9   10 1
    17    9   50 1
    18    9   51 1
    19   10   11 1
    20   10   12 1
    21   10   52 1
    22   11   53 1
    23   11   54 1
    24   11   55 1
    25   12   13 1
    26   12   14 1
    27   12   15 1
    28   15   16 1
    29   15   56 1
    30   15   57 1
    31   16   17 1
    32   16   18 1
    33   16   58 1
    34   17   59 1
    35   18   23 ar
    36   18   19 ar
    37   19   20 ar
    38   19   60 1
    39   20   21 ar
    40   20   61 1
    41   21   22 ar
    42   21   24 1
    43   22   23 ar
    44   22   62 1
    45   23   63 1
    46   24   25 1
    47   24   26 1
    48   24   64 1
    49   25   65 1
    50   26   27 1
    51   26   66 1
    52   26   67 1
    53   27   28 1
    54   27   29 1
    55   27   30 1
    56   30   31 1
    57   30   32 1
    58   30   68 1
    59   31   69 1
    60   31   70 1
    61   31   71 1
    62   32   33 1
    63   32   72 1
    64   32   73 1
    65   33   38 ar
    66   33   34 ar
    67   34   35 ar
    68   34   74 1
    69   35   36 ar
    70   35   75 1
    71   36   37 ar
    72   36   39 1
    73   37   38 ar
    74   37   76 1
    75   38   77 1
    76   39   40 2
    77   39   41 1
    78   41   42 1
    79   42   78 1
    80   42   79 1
    81   42   80 1
    82   43   44 ar
    83   43   81 1
    84   44   82 1
##########                 Name:              T527600
##########          Protonation:                   24
##########               SMILES:   C[NH+]([C@H]1CCN(CC1)c2[nH+]ccc(c2)NC(=O)c3ccc(cc3)F)Cc4cc(ccc4)O
##########            Long Name:   o]pyridin-1-ium-2-yl]-4-piperidyl]-[(3-hydroxyphenyl)methyl]-methyl-ammonium
##########          FlexRecCode: 1
##########               Number:                  394
##########   Ligand Source File: /raidb/db2/rgc/tcams/tcams-0000311.db2.gz
##########           GlobalRank: 397
##########                 Rank:                    1
##########               Setnum:                  300
##########             Matchnum:                 3075
##########                Cloud:                    1
##########        Electrostatic:           -39.982388
##########        Van der Waals:           -24.794659
##########  Ligand Polar Desolv:             2.851558
########## Ligand Apolar Desolv:            -2.326527
##########      Internal Energy:             0.000000
##########      Receptor Energy: 0.0
########## Receptor Desolvation:             0.000000
########## Receptor Hydrophobic:             0.000000
##########         Total Energy: -64.25
##########        Ligand Charge:             2.000000
##########            Arbitrary:    +999.9990
##########     heavy atom count:   32
##########           pose count:    1
##########        Ligand Energy:             0.000000
# num electro vdwattr vdwrepu polsolv apolsol rdesolv rhydroe totalscore fullpol fullapo
#   1    0.43   -0.09    0.00   -0.18   -0.02    0.00    0.00       0.13   -3.16   -0.44
#   2    2.65   -0.14    0.00   -1.21    0.02    0.00    0.00       1.31  -16.49    0.21
#   3   -1.55    0.00    0.00    0.60    0.02    0.00    0.00      -0.93   20.73    0.54
#   4   -0.37   -0.25    0.01    0.35   -0.05    0.00    0.00      -0.31    2.45   -0.34
#   5    0.67   -0.69    0.08   -0.56   -0.07    0.00    0.00      -0.56   -2.75   -0.33
#   6    0.31   -0.59    0.07   -0.47   -0.06    0.00    0.00      -0.73   -2.75   -0.36
#   7    0.25   -0.76    0.06   -0.90   -0.13    0.00    0.00      -1.49   -3.40   -0.47
#   8    0.33   -1.66    0.43   -1.59   -0.18    0.00    0.00      -2.67   -4.04   -0.46
#   9   -0.50   -2.35    1.13    0.26   -0.12    0.00    0.00      -1.58    0.66   -0.31
#  10    3.69   -5.29    6.90   -5.06    0.60    0.00    0.00       0.83  -10.04    1.19
#  11    0.60   -1.34    0.28   -1.06   -0.15    0.00    0.00      -1.67   -3.33   -0.46
#  12   -0.22   -0.15    0.00    0.19   -0.01    0.00    0.00      -0.19    2.08   -0.16
#  13    3.46   -0.42    0.04   -1.44   -0.04    0.00    0.00       1.60   -7.46   -0.22
#  14   -3.07   -0.81    0.23    0.96   -0.12    0.00    0.00      -2.81    3.79   -0.48
#  15    9.62   -0.42    0.01   -3.88    0.27    0.00    0.00       5.61  -24.61    1.69
#  16   -0.75   -0.16    0.00    0.39   -0.05    0.00    0.00      -0.55    4.18   -0.48
#  17    0.87   -0.10    0.00   -0.53   -0.02    0.00    0.00       0.23   -7.73   -0.22
#  18   -7.19   -0.50    0.02    3.49   -0.37    0.00    0.00      -4.55   18.97   -2.01
#  19    2.78   -0.73    0.10   -1.72   -0.09    0.00    0.00       0.34   -8.11   -0.43
#  20   -2.40   -1.27    0.58    2.02   -0.17    0.00    0.00      -1.25    7.93   -0.68
#  21    3.47   -1.65    0.71   -5.89    0.52    0.00    0.00      -2.85  -18.60    1.64
#  22   -1.27   -2.01    1.21    4.28   -0.21    0.00    0.00       2.00   13.21   -0.64
#  23    0.18   -1.99    1.11   -2.90    0.09    0.00    0.00      -3.52  -10.50    0.33
#  24    0.77   -1.51    0.22   -1.18   -0.15    0.00    0.00      -1.85   -3.21   -0.41
#  25    0.46   -1.50    0.26   -0.11   -0.17    0.00    0.00      -1.07   -0.27   -0.44
#  26    1.60   -1.81    0.58   -1.54   -0.23    0.00    0.00      -1.40   -3.10   -0.47
#  27   -1.17   -1.79    0.26    0.35   -0.19    0.00    0.00      -2.54    0.62   -0.34
#  28    0.48   -1.66    0.43   -1.13   -0.30    0.00    0.00      -2.19   -1.82   -0.48
#  29    1.21   -1.75    0.22   -1.43   -0.25    0.00    0.00      -1.98   -2.68   -0.47
#  30    0.06   -1.86    0.40   -0.39   -0.20    0.00    0.00      -1.99   -0.90   -0.46
#  31    1.96   -1.06    0.20   -2.23   -0.12    0.00    0.00      -1.25   -7.70   -0.41
#  32   -2.89   -0.67    0.03    1.83   -0.23    0.00    0.00      -1.93    7.57   -0.97
#  33    8.67   -0.52    0.01   -3.91    0.19    0.00    0.00       4.45  -19.40    0.96
#  34   -7.31   -0.01    0.00    1.97    0.04    0.00    0.00      -5.31   20.05    0.41
#  35   -1.39   -0.04    0.00    0.30   -0.01    0.00    0.00      -1.15    6.89   -0.22
#  36   -0.70   -0.02    0.00    0.09   -0.01    0.00    0.00      -0.64    3.26   -0.21
#  37   -0.60   -0.02    0.00    0.19   -0.01    0.00    0.00      -0.44    6.95   -0.28
#  38   -2.20   -0.08    0.00    0.61   -0.01    0.00    0.00      -1.68    8.40   -0.20
#  39   -0.97   -0.10    0.01    0.82   -0.03    0.00    0.00      -0.27    8.46   -0.28
#  40   -0.32   -0.06    0.00    0.46   -0.02    0.00    0.00       0.07    6.89   -0.28
#  41   -0.31   -0.11    0.00    0.23   -0.03    0.00    0.00      -0.21    2.21   -0.28
#  42   -0.35   -0.54    0.25    0.24   -0.11    0.00    0.00      -0.51    0.62   -0.28
#  43  -13.23   -0.21    0.06    4.23    0.57    0.00    0.00      -8.59    9.12    1.22
#  44   -2.76   -0.32    0.08    1.58   -0.07    0.00    0.00      -1.49    6.26   -0.28
#  45   -0.88   -0.05    0.00    0.42   -0.01    0.00    0.00      -0.52    9.20   -0.28
#  46   -1.99   -0.09    0.00    0.48   -0.03    0.00    0.00      -1.63    4.83   -0.28
#  47   -3.08   -0.19    0.02    1.16   -0.04    0.00    0.00      -2.13    6.40   -0.22
#  48   -4.35   -0.84    1.44    1.26   -0.05    0.00    0.00      -2.55    5.04   -0.20
#  49   -2.85   -0.27    0.05    1.31   -0.07    0.00    0.00      -1.83    5.38   -0.28
#  50   -0.21   -0.06    0.00    0.34   -0.01    0.00    0.00       0.06    5.06   -0.20
#  51   -0.51   -0.04    0.00    0.21   -0.01    0.00    0.00      -0.35    5.32   -0.28
#  52   -0.22   -0.02    0.00    0.17   -0.01    0.00    0.00      -0.08    6.45   -0.22
#  53   -0.53   -0.03    0.00    0.17   -0.01    0.00    0.00      -0.40    4.74   -0.28
#  54   -2.01   -0.11    0.01    0.98   -0.02    0.00    0.00      -1.16    9.13   -0.20
#  55   -3.43   -0.02    0.00    3.68    0.11    0.00    0.00       0.34   14.85    0.46
#  56   -1.65   -0.24    0.02    1.82   -0.05    0.00    0.00      -0.11    7.31   -0.22
#  57   -2.09   -0.38    0.08    1.32   -0.11    0.00    0.00      -1.18    3.46   -0.28
#  58   -1.82   -0.46    0.10    0.77   -0.14    0.00    0.00      -1.56    1.51   -0.28
#  59   -0.36   -0.57    0.28    0.73   -0.09    0.00    0.00      -0.01    2.15   -0.27
#  60   -2.37   -0.26    0.03    0.72   -0.06    0.00    0.00      -1.94    2.79   -0.22
#  61   -4.60   -0.14    0.00    1.19   -0.04    0.00    0.00      -3.58    9.49   -0.28

@<TRIPOS>MOLECULE
          T527600        24
   61    64     0     0     0



@<TRIPOS>ATOM
      1 C1          7.4102    -9.2338    88.8409 C.3        1          -0.0598
      2 N1          6.4880    -8.4658    87.9938 N.4        1          -0.3828
      3 H1          6.0432    -9.0852    87.3331 H          1           0.4235
      4 C2          7.2366    -7.4313    87.2675 C.3        1           0.0408
      5 C3          6.2905    -6.6433    86.3986 C.ar       1          -0.1493
      6 C4          5.3399    -7.3006    85.6393 C.ar       1          -0.1069
      7 C5          4.4702    -6.5806    84.8415 C.ar       1          -0.0919
      8 C6          4.5492    -5.2018    84.8009 C.ar       1          -0.1089
      9 C7          5.5019    -4.5402    85.5614 C.ar       1           0.1214
     10 O1          5.5814    -3.1840    85.5231 O.3        1          -0.4911
     11 C8          6.3701    -5.2648    86.3654 C.ar       1          -0.1259
     12 C9          5.4648    -7.8303    88.8347 C.3        1           0.0241
     13 C10         6.1395    -6.8896    89.8357 C.3        1          -0.1633
     14 C11         5.0673    -6.2029    90.6876 C.3        1           0.1089
     15 N2          4.2213    -7.2338    91.3043 N.pl3      1          -0.6078
     16 C12         3.5964    -8.2446    90.4402 C.3        1           0.1195
     17 C13         4.6850    -8.9084    89.5910 C.3        1          -0.1659
     18 C14         4.0163    -7.2528    92.6792 C.ar       1           0.4620
     19 C15         4.8834    -7.9693    93.4936 C.ar       1          -0.2432
     20 C16         4.6657    -7.9786    94.8672 C.ar       1           0.3199
     21 N3          5.5132    -8.6852    95.7203 N.am       1          -0.6662
     22 C17         6.1360    -9.7973    95.2822 C.2        1           0.5771
     23 O2          5.9591   -10.1844    94.1435 O.2        1          -0.4887
     24 C18         7.0335   -10.5455    96.1855 C.ar       1          -0.1750
     25 C19         7.6866    -9.8858    97.2290 C.ar       1          -0.0510
     26 C20         8.5226   -10.5890    98.0693 C.ar       1          -0.1599
     27 C21         8.7161   -11.9490    97.8800 C.ar       1           0.1541
     28 F1          9.5370   -12.6334    98.7064 F          1          -0.1194
     29 C22         8.0699   -12.6091    96.8460 C.ar       1          -0.1582
     30 C23         7.2275   -11.9165    96.0029 C.ar       1          -0.0138
     31 C24         3.5780    -7.2625    95.3712 C.ar       1          -0.1718
     32 C25         2.7622    -6.5756    94.4990 C.ar       1           0.1707
     33 N4          2.9988    -6.5826    93.1998 N.ar       1          -0.5164
     34 H2          2.4095    -6.0867    92.6102 H          1           0.4377
     35 H3          7.8908    -8.5648    89.5546 H          1           0.1252
     36 H4          6.8547   -10.0016    89.3797 H          1           0.1318
     37 H5          8.1694    -9.7053    88.2168 H          1           0.1275
     38 H6          7.7173    -6.7621    87.9812 H          1           0.1384
     39 H7          7.9958    -7.9028    86.6435 H          1           0.1413
     40 H8          5.2769    -8.3784    85.6695 H          1           0.1352
     41 H9          3.7288    -7.0963    84.2493 H          1           0.1443
     42 H10         3.8698    -4.6398    84.1772 H          1           0.1454
     43 H11         6.2754    -2.8146    86.0860 H          1           0.4022
     44 H12         7.1098    -4.7516    86.9620 H          1           0.1355
     45 H13         4.7804    -7.2609    88.2060 H          1           0.1477
     46 H14         6.8054    -7.4623    90.4812 H          1           0.0983
     47 H15         6.7136    -6.1361    89.2966 H          1           0.1183
     48 H16         5.5449    -5.6084    91.4663 H          1           0.0958
     49 H17         4.4562    -5.5583    90.0559 H          1           0.1118
     50 H18         3.1035    -8.9971    91.0557 H          1           0.1172
     51 H19         2.8653    -7.7665    89.7883 H          1           0.1067
     52 H20         4.2240    -9.5918    88.8777 H          1           0.1179
     53 H21         5.3647    -9.4621    90.2388 H          1           0.0995
     54 H22         5.7140    -8.5116    93.0667 H          1           0.1813
     55 H23         5.6543    -8.3765    96.6289 H          1           0.4306
     56 H24         7.5370    -8.8264    97.3770 H          1           0.1346
     57 H25         9.0281   -10.0799    98.8766 H          1           0.1518
     58 H26         8.2240   -13.6684    96.7032 H          1           0.1547
     59 H27         6.7218   -12.4324    95.2001 H          1           0.1527
     60 H28         3.3784    -7.2477    96.4325 H          1           0.1956
     61 H29         1.9196    -6.0201    94.8837 H          1           0.2158
@<TRIPOS>BOND
     1    1    2 1
     2    1   35 1
     3    1   36 1
     4    1   37 1
     5    2    3 1
     6    2    4 1
     7    2   12 1
     8    4    5 1
     9    4   38 1
    10    4   39 1
    11    5   11 ar
    12    5    6 ar
    13    6    7 ar
    14    6   40 1
    15    7    8 ar
    16    7   41 1
    17    8    9 ar
    18    8   42 1
    19    9   10 1
    20    9   11 ar
    21   10   43 1
    22   11   44 1
    23   12   17 1
    24   12   13 1
    25   12   45 1
    26   13   14 1
    27   13   46 1
    28   13   47 1
    29   14   15 1
    30   14   48 1
    31   14   49 1
    32   15   16 1
    33   15   18 1
    34   16   17 1
    35   16   50 1
    36   16   51 1
    37   17   52 1
    38   17   53 1
    39   18   33 ar
    40   18   19 ar
    41   19   20 ar
    42   19   54 1
    43   20   21 1
    44   20   31 ar
    45   21   22 am
    46   21   55 1
    47   22   23 2
    48   22   24 1
    49   24   30 ar
    50   24   25 ar
    51   25   26 ar
    52   25   56 1
    53   26   27 ar
    54   26   57 1
    55   27   28 1
    56   27   29 ar
    57   29   30 ar
    58   29   58 1
    59   30   59 1
    60   31   32 ar
    61   31   60 1
    62   32   33 ar
    63   32   61 1
    64   33   34 1
##########                 Name:              T536792
##########          Protonation:                   47
##########               SMILES:   COc1c(cc2[nH]/c(=[NH+]/[C@H]3CC[NH+](CC3)Cc4ccccc4)/nc(c2c1)N)OC
##########            Long Name:   ,7-dimethoxy-1H-quinazolin-2-ylidene)-(1-benzylpiperidin-1-ium-4-yl)ammonium
##########          FlexRecCode: 1
##########               Number:                  304
##########   Ligand Source File: /raidb/db2/rgc/tcams/tcams-0001525.db2.gz
##########           GlobalRank: 399
##########                 Rank:                    1
##########               Setnum:                   15
##########             Matchnum:                 8045
##########                Cloud:                    1
##########        Electrostatic:           -43.498322
##########        Van der Waals:           -31.780336
##########  Ligand Polar Desolv:            15.180456
########## Ligand Apolar Desolv:            -4.130130
##########      Internal Energy:             0.000000
##########      Receptor Energy: 0.0
########## Receptor Desolvation:             0.000000
########## Receptor Hydrophobic:             0.000000
##########         Total Energy: -64.23
##########        Ligand Charge:             2.000000
##########            Arbitrary:    +999.9990
##########     heavy atom count:   29
##########           pose count:    1
##########        Ligand Energy:             0.000000
# num electro vdwattr vdwrepu polsolv apolsol rdesolv rhydroe totalscore fullpol fullapo
#   1   -0.17   -1.52    0.73    0.03    0.01    0.00    0.00      -0.92    0.07    0.03
#   2    2.49   -0.91    0.07   -2.29    0.21    0.00    0.00      -0.43   -6.52    0.59
#   3   -1.51   -1.14    0.16    0.82   -0.10    0.00    0.00      -1.78    2.42   -0.31
#   4    1.59   -1.17    0.22   -1.53   -0.12    0.00    0.00      -1.00   -5.39   -0.42
#   5   -2.00   -1.09    0.13    2.32   -0.22    0.00    0.00      -0.86    7.54   -0.72
#   6    1.78   -1.33    0.14   -2.14   -0.15    0.00    0.00      -1.71   -5.72   -0.41
#   7    1.03   -1.83    0.54   -0.90   -0.16    0.00    0.00      -1.33   -2.23   -0.40
#   8   -0.90   -1.26    0.12    0.06   -0.13    0.00    0.00      -2.10    0.15   -0.31
#   9    2.31   -1.18    0.08   -3.44    0.33    0.00    0.00      -1.89   -6.29    0.61
#  10   -0.15   -1.51    0.56    0.04    0.02    0.00    0.00      -1.05    0.07    0.03
#  11   -7.39   -1.61    0.23    8.38   -1.00    0.00    0.00      -1.40   18.38   -2.19
#  12   10.70   -3.07    0.93  -13.86    0.49    0.00    0.00      -4.81  -24.82    0.88
#  13   10.46   -1.36    0.17   -8.65    0.70    0.00    0.00       1.33  -21.47    1.73
#  14  -13.42   -0.85    0.04    8.34   -1.47    0.00    0.00      -7.37   26.99   -4.75
#  15    8.92   -0.82    0.06   -6.27    0.30    0.00    0.00       2.18  -22.71    1.07
#  16   17.48   -0.87    0.05   -8.00    0.38    0.00    0.00       9.04  -25.81    1.22
#  17  -12.33   -0.01    0.00    3.06    0.07    0.00    0.00      -9.21   21.74    0.47
#  18   -3.95   -1.06    0.13    2.46   -0.11    0.00    0.00      -2.52    5.76   -0.26
#  19    3.85   -1.17    0.18   -2.99   -0.10    0.00    0.00      -0.22   -6.58   -0.23
#  20    0.26   -0.70    0.04   -0.02   -0.15    0.00    0.00      -0.56   -0.05   -0.38
#  21    9.33   -0.90    0.08   -6.02    0.10    0.00    0.00       2.58  -16.61    0.27
#  22  -11.44   -0.03    0.00    6.28    0.17    0.00    0.00      -5.02   20.45    0.54
#  23   -1.03   -0.66    0.06    0.90   -0.11    0.00    0.00      -0.84    2.84   -0.36
#  24    3.97   -1.30    0.23   -1.41   -0.13    0.00    0.00       1.36   -3.70   -0.33
#  25    2.42   -2.39    1.03   -1.37   -0.21    0.00    0.00      -0.52   -2.88   -0.45
#  26    2.66   -1.96    0.31   -2.37   -0.27    0.00    0.00      -1.64   -4.11   -0.47
#  27    1.85   -2.22    0.69   -2.08   -0.27    0.00    0.00      -2.03   -3.59   -0.47
#  28    2.04   -2.42    1.07   -1.89   -0.22    0.00    0.00      -1.41   -4.12   -0.47
#  29    1.59   -1.36    0.26   -0.92   -0.13    0.00    0.00      -0.57   -2.51   -0.36
#  30    0.48   -0.81    0.10   -0.39   -0.11    0.00    0.00      -0.72   -1.15   -0.34
#  31    5.05   -1.53    0.39   -2.80   -0.11    0.00    0.00       1.00   -6.09   -0.23
#  32   -1.66   -1.19    3.70    0.92   -0.09    0.00    0.00       1.67    2.65   -0.27
#  33   -0.81   -0.67    0.53    0.98   -0.10    0.00    0.00      -0.07    2.45   -0.26
#  34   -0.78   -0.40    0.11    0.45   -0.08    0.00    0.00      -0.71    1.50   -0.28
#  35   -1.22   -0.16    0.02    0.98   -0.03    0.00    0.00      -0.41    6.59   -0.22
#  36   -1.76   -0.68    0.78    1.85   -0.06    0.00    0.00       0.13    5.55   -0.17
#  37   -0.66   -0.78    0.43    0.69   -0.15    0.00    0.00      -0.46    1.33   -0.28
#  38   -0.78   -0.61    0.61    0.79   -0.10    0.00    0.00      -0.10    2.17   -0.27
#  39   -0.75   -0.40    0.13    0.95   -0.11    0.00    0.00      -0.18    2.30   -0.26
#  40   -6.61   -0.05    0.00    7.40    0.24    0.00    0.00       0.97   14.54    0.48
#  41   -6.68   -0.06    0.00    8.39    0.33    0.00    0.00       1.98   15.13    0.59
#  42   -6.77   -0.01    0.00    2.36    0.07    0.00    0.00      -4.35   19.33    0.59
#  43   -4.51   -0.62    0.26    1.70   -0.10    0.00    0.00      -3.27    4.21   -0.25
#  44   -2.51   -0.35    0.05    1.40   -0.10    0.00    0.00      -1.51    3.91   -0.28
#  45   -3.21   -0.72    0.30    2.48   -0.13    0.00    0.00      -1.28    5.24   -0.28
#  46   -1.81   -0.14    0.01    1.11   -0.04    0.00    0.00      -0.88    7.99   -0.27
#  47   -3.90   -0.35    0.10    2.67   -0.10    0.00    0.00      -1.58    7.36   -0.28
#  48   -1.92   -0.11    0.00    1.01   -0.03    0.00    0.00      -1.05    8.90   -0.28
#  49   -4.16   -0.37    0.13    2.19   -0.08    0.00    0.00      -2.28    7.55   -0.27
#  50   -4.46   -1.08    1.22    2.77   -0.14    0.00    0.00      -1.68    5.74   -0.28
#  51   -3.36   -0.53    0.15    0.82   -0.15    0.00    0.00      -3.06    1.55   -0.28
#  52   -3.28   -0.73    0.48    0.41   -0.14    0.00    0.00      -3.26    0.82   -0.28
#  53   -1.94   -1.05    1.25    0.99   -0.12    0.00    0.00      -0.87    2.31   -0.28
#  54   -1.12   -0.33    0.18    1.57   -0.06    0.00    0.00       0.24    7.67   -0.28
#  55   -2.58   -0.13    0.01    1.17   -0.03    0.00    0.00      -1.56    9.10   -0.22
#  56   -2.95   -0.43    0.19    1.45   -0.06    0.00    0.00      -1.79    4.99   -0.19
#  57   -3.98   -1.34    2.50    2.33   -0.13    0.00    0.00      -0.63    4.98   -0.28
#  58   -5.29   -0.62    0.23    2.01   -0.13    0.00    0.00      -3.80    4.49   -0.28

@<TRIPOS>MOLECULE
          T536792        47
   58    61     0     0     0



@<TRIPOS>ATOM
      1 C1          7.7712   -13.0510    94.5403 C.3        1           0.0130
      2 O1          8.5418   -11.8660    94.7498 O.3        1          -0.2752
      3 C2          7.9330   -10.8417    95.4013 C.ar       1           0.2112
      4 C3          7.2322    -9.8883    94.6813 C.ar       1          -0.2203
      5 C4          6.6113    -8.8437    95.3458 C.ar       1           0.2143
      6 C5          6.6951    -8.7561    96.7480 C.ar       1          -0.1835
      7 C6          7.4036    -9.7213    97.4667 C.ar       1          -0.1158
      8 C7          8.0130   -10.7602    96.7936 C.ar       1           0.1167
      9 O2          8.7000   -11.7067    97.4887 O.3        1          -0.2860
     10 C8         10.0891   -11.4622    97.7183 C.3        1           0.0150
     11 C9          6.0253    -7.6350    97.4209 C.2        1           0.5698
     12 N1          6.0810    -7.5090    98.7869 N.pl3      1          -0.7587
     13 N2          5.3693    -6.7499    96.6926 N.2        1          -0.6092
     14 C10         5.2979    -6.8464    95.3579 C.cat      1           0.6996
     15 N3          5.9007    -7.8689    94.6622 N.pl3      1          -0.6249
     16 N4          4.6295    -5.9339    94.6911 N.pl3      1          -0.6582
     17 H1          4.5673    -5.9878    93.7246 H          1           0.4228
     18 C11         3.9776    -4.8345    95.4069 C.3        1           0.1355
     19 C12         2.9414    -5.4013    96.3819 C.3        1          -0.1579
     20 C13         1.8534    -6.1328    95.5928 C.3        1          -0.0117
     21 N5          1.1993    -5.1966    94.6708 N.4        1          -0.3830
     22 H2          0.8261    -4.4178    95.1925 H          1           0.4285
     23 C14         0.1060    -5.8842    93.9708 C.3        1           0.0454
     24 C15        -0.8567    -4.8647    93.4186 C.ar       1          -0.1693
     25 C16        -1.9221    -4.4331    94.1864 C.ar       1          -0.0917
     26 C17        -2.8050    -3.4979    93.6798 C.ar       1          -0.1094
     27 C18        -2.6225    -2.9941    92.4055 C.ar       1          -0.0783
     28 C19        -1.5565    -3.4251    91.6381 C.ar       1          -0.1119
     29 C20        -0.6711    -4.3572    92.1463 C.ar       1          -0.1008
     30 C21         2.1719    -4.7039    93.6880 C.3        1          -0.0201
     31 C22         3.2722    -3.9173    94.4037 C.3        1          -0.1566
     32 H3          8.3747   -13.7880    94.0104 H          1           0.0678
     33 H4          7.4626   -13.4587    95.5029 H          1           0.0685
     34 H5          6.8885   -12.8105    93.9478 H          1           0.1226
     35 H6          7.1705    -9.9590    93.6054 H          1           0.1661
     36 H7          7.4706    -9.6573    98.5427 H          1           0.1592
     37 H8         10.5159   -12.2921    98.2819 H          1           0.1203
     38 H9         10.6045   -11.3693    96.7624 H          1           0.0645
     39 H10        10.2067   -10.5391    98.2859 H          1           0.0642
     40 H11         6.5650    -8.1630    99.3149 H          1           0.4334
     41 H12         5.6361    -6.7660    99.2240 H          1           0.4328
     42 H13         5.8290    -7.9077    93.6957 H          1           0.4346
     43 H14         4.7252    -4.2646    95.9586 H          1           0.1438
     44 H15         3.4270    -6.0985    97.0644 H          1           0.1223
     45 H16         2.4930    -4.5865    96.9506 H          1           0.1178
     46 H17         2.3028    -6.9473    95.0245 H          1           0.1212
     47 H18         1.1140    -6.5377    96.2838 H          1           0.1425
     48 H19         0.5146    -6.4783    93.1535 H          1           0.1340
     49 H20        -0.4176    -6.5378    94.6686 H          1           0.1411
     50 H21        -2.0648    -4.8268    95.1820 H          1           0.1323
     51 H22        -3.6379    -3.1612    94.2793 H          1           0.1393
     52 H23        -3.3128    -2.2641    92.0095 H          1           0.1392
     53 H24        -1.4141    -3.0318    90.6423 H          1           0.1379
     54 H25         0.1638    -4.6911    91.5481 H          1           0.1280
     55 H26         2.6145    -5.5489    93.1605 H          1           0.1194
     56 H27         1.6677    -4.0539    92.9728 H          1           0.1476
     57 H28         2.8307    -3.0720    94.9314 H          1           0.1233
     58 H29         3.9942    -3.5539    93.6726 H          1           0.1269
@<TRIPOS>BOND
     1    1    2 1
     2    1   32 1
     3    1   33 1
     4    1   34 1
     5    2    3 1
     6    3    8 ar
     7    3    4 ar
     8    4    5 ar
     9    4   35 1
    10    5   15 1
    11    5    6 ar
    12    6    7 ar
    13    6   11 1
    14    7    8 ar
    15    7   36 1
    16    8    9 1
    17    9   10 1
    18   10   37 1
    19   10   38 1
    20   10   39 1
    21   11   12 1
    22   11   13 2
    23   12   40 1
    24   12   41 1
    25   13   14 1
    26   14   15 1
    27   14   16 2
    28   15   42 1
    29   16   17 1
    30   16   18 1
    31   18   31 1
    32   18   19 1
    33   18   43 1
    34   19   20 1
    35   19   44 1
    36   19   45 1
    37   20   21 1
    38   20   46 1
    39   20   47 1
    40   21   22 1
    41   21   23 1
    42   21   30 1
    43   23   24 1
    44   23   48 1
    45   23   49 1
    46   24   29 ar
    47   24   25 ar
    48   25   26 ar
    49   25   50 1
    50   26   27 ar
    51   26   51 1
    52   27   28 ar
    53   27   52 1
    54   28   29 ar
    55   28   53 1
    56   29   54 1
    57   30   31 1
    58   30   55 1
    59   30   56 1
    60   31   57 1
    61   31   58 1
##########                 Name:              T539463
##########          Protonation:                   88
##########               SMILES:   Cc1c(c2ccccc2[nH]1)C3=CC[NH+](CC3)C[C@H]4C[C@@H]4C(=O)c5cccc(c5)OC
##########            Long Name:   ndol-3-yl)-1,2,3,6-tetrahydropyridin-1-ium-1-yl]methyl]cyclopropyl]methanone
##########          FlexRecCode: 1
##########               Number:                  193
##########   Ligand Source File: /raidb/db2/rgc/tcams/tcams-0001931.db2.gz
##########           GlobalRank: 399
##########                 Rank:                    1
##########               Setnum:                  107
##########             Matchnum:                 1893
##########                Cloud:                    1
##########        Electrostatic:           -48.980087
##########        Van der Waals:           -23.453857
##########  Ligand Polar Desolv:            13.486191
########## Ligand Apolar Desolv:            -5.281955
##########      Internal Energy:             0.000000
##########      Receptor Energy: 0.0
########## Receptor Desolvation:             0.000000
########## Receptor Hydrophobic:             0.000000
##########         Total Energy: -64.23
##########        Ligand Charge:             1.000000
##########            Arbitrary:    +999.9990
##########     heavy atom count:   30
##########           pose count:    1
##########        Ligand Energy:             0.000000
# num electro vdwattr vdwrepu polsolv apolsol rdesolv rhydroe totalscore fullpol fullapo
#   1   -0.57   -2.75    1.26    0.06    0.02    0.00    0.00      -1.98    0.09    0.03
#   2    6.47   -2.73    1.02   -0.65    0.55    0.00    0.00       4.66   -1.11    0.93
#   3   -1.63   -2.08    0.75    0.08   -0.16    0.00    0.00      -3.03    0.16   -0.31
#   4    1.07   -1.61    0.29   -0.41   -0.21    0.00    0.00      -0.86   -0.89   -0.45
#   5    0.89   -1.43    0.19   -0.58   -0.15    0.00    0.00      -1.09   -1.59   -0.41
#   6    0.60   -1.53    0.20   -0.48   -0.19    0.00    0.00      -1.40   -1.12   -0.44
#   7    0.65   -1.64    0.20   -0.69   -0.26    0.00    0.00      -1.75   -1.25   -0.47
#   8    1.54   -2.04    0.60   -0.91   -0.23    0.00    0.00      -1.05   -1.67   -0.42
#   9   -2.12   -1.49    0.39    1.75   -0.10    0.00    0.00      -1.56    5.26   -0.30
#  10   -0.35   -2.65    2.25   -1.24    0.12    0.00    0.00      -1.87   -4.00    0.39
#  11    2.24   -0.65    0.05   -1.56   -0.12    0.00    0.00      -0.04   -4.80   -0.37
#  12    2.89   -1.06    0.29   -1.21   -0.15    0.00    0.00       0.76   -3.30   -0.41
#  13    3.61   -0.52    0.03   -0.83   -0.09    0.00    0.00       2.21   -3.11   -0.32
#  14   -0.68   -0.55    0.04    0.44   -0.10    0.00    0.00      -0.86    1.56   -0.37
#  15   16.11   -2.13    2.72   -4.22    0.10    0.00    0.00      12.57  -12.15    0.28
#  16  -25.39   -0.19    0.11    4.64    0.16    0.00    0.00     -20.67   15.79    0.54
#  17    0.13   -2.08    1.03    0.35   -0.19    0.00    0.00      -0.76    0.74   -0.40
#  18    3.30   -1.22    0.24   -1.17   -0.10    0.00    0.00       1.05   -2.81   -0.24
#  19    0.02   -0.99    0.11   -0.30   -0.11    0.00    0.00      -1.26   -1.02   -0.37
#  20    3.63   -0.75    0.06   -0.80   -0.10    0.00    0.00       2.05   -3.45   -0.45
#  21   -1.05   -0.84    0.23    0.38   -0.10    0.00    0.00      -1.38    1.44   -0.38
#  22    3.53   -0.86    0.05   -0.66   -0.12    0.00    0.00       1.93   -2.15   -0.38
#  23   -2.32   -1.00    0.14    0.26   -0.22    0.00    0.00      -3.14    0.89   -0.76
#  24    1.18   -0.61    0.05   -0.47   -0.07    0.00    0.00       0.08   -1.47   -0.21
#  25   17.63   -4.09   11.30   -1.93    0.40    0.00    0.00      23.31   -5.36    1.11
#  26   -2.36   -1.87    1.01    0.05   -0.33    0.00    0.00      -3.49    0.13   -0.78
#  27    2.96   -2.09    0.72   -0.48   -0.25    0.00    0.00       0.87   -0.94   -0.48
#  28    2.26   -2.00    0.25   -0.53   -0.30    0.00    0.00      -0.31   -0.83   -0.47
#  29    3.08   -2.89    0.67   -0.79   -0.27    0.00    0.00      -0.21   -1.36   -0.47
#  30    1.68   -3.10    1.33   -0.36   -0.23    0.00    0.00      -0.69   -0.72   -0.47
#  31    1.75   -1.31    0.13   -0.47   -0.18    0.00    0.00      -0.08   -1.15   -0.44
#  32   -1.75   -2.18    3.54    0.41   -0.17    0.00    0.00      -0.15    0.62   -0.26
#  33   -1.29   -0.73    0.38    0.36   -0.14    0.00    0.00      -1.42    0.68   -0.26
#  34   -2.36   -0.68    0.20    0.51   -0.16    0.00    0.00      -2.50    0.88   -0.28
#  35   -2.08   -0.26    0.02   -0.02   -0.07    0.00    0.00      -2.42   -0.08   -0.26
#  36   -0.48   -0.35    0.06    1.49   -0.06    0.00    0.00       0.66    4.91   -0.21
#  37   -1.12   -0.37    0.04    1.50   -0.14    0.00    0.00      -0.09    3.03   -0.28
#  38   -1.00   -0.55    0.27    0.79   -0.12    0.00    0.00      -0.60    1.48   -0.22
#  39   -1.68   -0.22    0.01    1.30   -0.05    0.00    0.00      -0.64    5.33   -0.22
#  40   -3.18   -0.33    0.05    1.78   -0.10    0.00    0.00      -1.79    4.84   -0.28
#  41   -2.50   -0.95    1.43    0.21   -0.08    0.00    0.00      -1.89    0.71   -0.28
#  42   -2.27   -0.12    0.00    0.34   -0.03    0.00    0.00      -2.06    2.88   -0.22
#  43   -2.56   -0.11    0.00    0.62   -0.03    0.00    0.00      -2.08    6.46   -0.27
#  44   -3.74   -0.21    0.01    1.55   -0.05    0.00    0.00      -2.44    7.71   -0.26
#  45   -5.94   -0.63    0.15    2.54   -0.14    0.00    0.00      -4.03    4.96   -0.28
#  46   -7.09   -1.55    2.78    3.53   -0.13    0.00    0.00      -2.47    7.27   -0.27
#  47   -3.42   -0.28    0.03    0.49   -0.07    0.00    0.00      -3.26    1.83   -0.28
#  48   -2.93   -0.74    0.36    1.41   -0.11    0.00    0.00      -2.02    3.44   -0.28
#  49   -1.69   -0.08    0.00    0.11   -0.02    0.00    0.00      -1.68    1.40   -0.28
#  50   -5.48   -0.52    0.30    1.23   -0.06    0.00    0.00      -4.53    4.23   -0.21
#  51   -3.13   -0.11    0.01    0.57   -0.03    0.00    0.00      -2.69    5.37   -0.27
#  52   -0.87   -0.32    0.08    0.43   -0.09    0.00    0.00      -0.77    1.35   -0.28
#  53   -0.42   -0.11    0.00    0.11   -0.03    0.00    0.00      -0.45    0.95   -0.28
#  54   -1.11   -0.19    0.01    0.63   -0.06    0.00    0.00      -0.72    2.88   -0.27
#  55  -20.36   -0.48    0.89    1.72    0.24    0.00    0.00     -17.99    4.20    0.59
#  56   -3.06   -0.78    0.78    0.27   -0.12    0.00    0.00      -2.91    0.63   -0.28
#  57   -3.10   -0.46    0.06    0.43   -0.15    0.00    0.00      -3.22    0.81   -0.28
#  58   -2.92   -0.99    0.49    0.79   -0.17    0.00    0.00      -2.78    1.32   -0.28
#  59   -2.24   -1.70    3.62    1.15   -0.14    0.00    0.00       0.70    2.35   -0.28

@<TRIPOS>MOLECULE
          T539463        88
   59    63     0     0     0



@<TRIPOS>ATOM
      1 C1          8.9053    -7.8102    99.6107 C.3        1           0.0235
      2 O1          9.2366    -9.1994    99.5612 O.3        1          -0.3130
      3 C2          8.6730    -9.9331    98.5656 C.ar       1           0.1226
      4 C3          7.8252    -9.3269    97.6548 C.ar       1          -0.0920
      5 C4          7.2480   -10.0855    96.6327 C.ar       1          -0.1349
      6 C5          7.5319   -11.4520    96.5386 C.ar       1          -0.1129
      7 C6          8.3782   -12.0435    97.4525 C.ar       1          -0.0890
      8 C7          8.9527   -11.2891    98.4598 C.ar       1          -0.1715
      9 C8          6.3449    -9.4495    95.6599 C.2        1           0.4265
     10 O2          5.8456   -10.1101    94.7743 O.2        1          -0.4408
     11 C9          6.0410    -7.9772    95.7647 C.3        1          -0.1826
     12 C10         7.0659    -7.0011    95.1836 C.3        1          -0.1291
     13 C11         5.7321    -7.2257    94.4683 C.3        1          -0.1831
     14 C12         4.6975    -6.1005    94.5332 C.3        1           0.0260
     15 N1          4.8722    -5.2073    93.3801 N.4        1          -0.3838
     16 H1          5.8562    -5.0719    93.2022 H          1           0.4271
     17 C13         4.2371    -3.9101    93.6588 C.3        1          -0.0030
     18 C14         2.8259    -4.1784    94.1860 C.3        1          -0.1138
     19 C15         2.1021    -5.1105    93.2537 C.2        1          -0.0010
     20 C16         2.7380    -5.8408    92.3588 C.2        1          -0.1907
     21 C17         4.2338    -5.7978    92.1975 C.3        1           0.0339
     22 C18         0.6322    -5.2113    93.3437 C.2        1          -0.1838
     23 C19        -0.0888    -6.3272    93.6245 C.2        1           0.1182
     24 C20         0.4935    -7.6893    93.9006 C.3        1          -0.1001
     25 N2         -1.4201    -6.0285    93.6193 N.pl3      1          -0.5840
     26 C21        -1.6074    -4.6939    93.3316 C.ar       1           0.0941
     27 C22        -2.7399    -3.8946    93.2063 C.ar       1          -0.1218
     28 C23        -2.6038    -2.5577    92.9031 C.ar       1          -0.0953
     29 C24        -1.3468    -1.9981    92.7211 C.ar       1          -0.1327
     30 C25        -0.2222    -2.7664    92.8396 C.ar       1          -0.0815
     31 C26        -0.3378    -4.1197    93.1525 C.ar       1          -0.0854
     32 H2          9.4207    -7.3433   100.4501 H          1           0.0598
     33 H3          9.2138    -7.3297    98.6822 H          1           0.0594
     34 H4          7.8285    -7.6978    99.7376 H          1           0.1074
     35 H5          7.6103    -8.2715    97.7338 H          1           0.1434
     36 H6          7.0885   -12.0432    95.7511 H          1           0.1320
     37 H7          8.5968   -13.0986    97.3791 H          1           0.1362
     38 H8          9.6181   -11.7578    99.1697 H          1           0.1378
     39 H9          5.5066    -7.6703    96.6638 H          1           0.1407
     40 H10         7.2061    -6.0518    95.7005 H          1           0.1197
     41 H11         7.9601    -7.4239    94.7255 H          1           0.1193
     42 H12         5.7489    -7.7961    93.5395 H          1           0.1362
     43 H13         3.6947    -6.5274    94.5134 H          1           0.1361
     44 H14         4.8333    -5.5347    95.4549 H          1           0.1367
     45 H15         4.8146    -3.3714    94.4100 H          1           0.1334
     46 H16         4.1822    -3.3227    92.7423 H          1           0.1368
     47 H17         2.8888    -4.6320    95.1750 H          1           0.1252
     48 H18         2.2797    -3.2376    94.2538 H          1           0.1045
     49 H19         2.1648    -6.4949    91.7185 H          1           0.1493
     50 H20         4.4820    -5.1999    91.3204 H          1           0.1386
     51 H21         4.6104    -6.8108    92.0554 H          1           0.1379
     52 H22        -0.3127    -8.3968    94.0946 H          1           0.0842
     53 H23         1.0678    -8.0212    93.0355 H          1           0.0772
     54 H24         1.1470    -7.6355    94.7714 H          1           0.0806
     55 H25        -2.1321    -6.6641    93.7928 H          1           0.4207
     56 H26        -3.7223    -4.3213    93.3457 H          1           0.1251
     57 H27        -3.4838    -1.9392    92.8060 H          1           0.1311
     58 H28        -1.2566    -0.9484    92.4839 H          1           0.1266
     59 H29         0.7530    -2.3248    92.6965 H          1           0.1177
@<TRIPOS>BOND
     1    1    2 1
     2    1   32 1
     3    1   33 1
     4    1   34 1
     5    2    3 1
     6    3    8 ar
     7    3    4 ar
     8    4    5 ar
     9    4   35 1
    10    5    6 ar
    11    5    9 1
    12    6    7 ar
    13    6   36 1
    14    7    8 ar
    15    7   37 1
    16    8   38 1
    17    9   10 2
    18    9   11 1
    19   11   13 1
    20   11   12 1
    21   11   39 1
    22   12   13 1
    23   12   40 1
    24   12   41 1
    25   13   14 1
    26   13   42 1
    27   14   15 1
    28   14   43 1
    29   14   44 1
    30   15   16 1
    31   15   21 1
    32   15   17 1
    33   17   18 1
    34   17   45 1
    35   17   46 1
    36   18   19 1
    37   18   47 1
    38   18   48 1
    39   19   20 2
    40   19   22 1
    41   20   21 1
    42   20   49 1
    43   21   50 1
    44   21   51 1
    45   22   31 1
    46   22   23 2
    47   23   24 1
    48   23   25 1
    49   24   52 1
    50   24   53 1
    51   24   54 1
    52   25   26 1
    53   25   55 1
    54   26   31 ar
    55   26   27 ar
    56   27   28 ar
    57   27   56 1
    58   28   29 ar
    59   28   57 1
    60   29   30 ar
    61   29   58 1
    62   30   31 ar
    63   30   59 1
##########                 Name:              T526581
##########          Protonation:                   99
##########               SMILES:   C(=O)N2C[C@@](OCC2)(c3cc(c(cc3)Cl)Cl)CC[NH+]4CC[C@@H](CC4)c5ccc(cc5)Cl)OC)OC
##########            Long Name:   hyl]-2-(3,4-dichlorophenyl)morpholin-4-yl]-(3,4,5-trimethoxyphenyl)methanone
##########          FlexRecCode: 1
##########               Number:                  108
##########   Ligand Source File: /raidb/db2/rgc/tcams/tcams-0000163.db2.gz
##########           GlobalRank: 400
##########                 Rank:                    1
##########               Setnum:                   50
##########             Matchnum:                 3453
##########                Cloud:                    1
##########        Electrostatic:           -31.613451
##########        Van der Waals:           -34.948807
##########  Ligand Polar Desolv:             7.038274
########## Ligand Apolar Desolv:            -4.699932
##########      Internal Energy:             0.000000
##########      Receptor Energy: 0.0
########## Receptor Desolvation:             0.000000
########## Receptor Hydrophobic:             0.000000
##########         Total Energy: -64.22
##########        Ligand Charge:             1.000000
##########            Arbitrary:    +999.9990
##########     heavy atom count:   43
##########           pose count:    1
##########        Ligand Energy:             0.000000
# num electro vdwattr vdwrepu polsolv apolsol rdesolv rhydroe totalscore fullpol fullapo
#   1   -0.02   -0.69    0.12    0.02    0.01    0.00    0.00      -0.56    0.05    0.03
#   2    0.26   -1.32    0.68   -0.91    0.18    0.00    0.00      -1.11   -3.13    0.62
#   3   -0.17   -0.74    0.15    0.32   -0.07    0.00    0.00      -0.51    1.45   -0.31
#   4    0.36   -1.18    0.29   -0.69   -0.08    0.00    0.00      -1.30   -2.55   -0.29
#   5    0.13   -0.81    0.17   -0.14   -0.08    0.00    0.00      -0.72   -0.66   -0.36
#   6    0.25   -0.30    0.01   -0.26   -0.05    0.00    0.00      -0.35   -2.12   -0.40
#   7   -0.15   -0.18    0.00    0.11   -0.03    0.00    0.00      -0.24    1.36   -0.31
#   8    0.24   -0.09    0.00   -0.13    0.03    0.00    0.00       0.06   -3.02    0.62
#   9   -0.02   -0.10    0.00    0.01    0.00    0.00    0.00      -0.11    0.10    0.03
#  10   -0.05   -0.27    0.01   -0.01   -0.03    0.00    0.00      -0.34   -0.06   -0.26
#  11    0.21   -0.16    0.00   -0.16    0.03    0.00    0.00      -0.07   -1.76    0.38
#  12   -0.02   -0.13    0.00    0.02    0.00    0.00    0.00      -0.13    0.20    0.03
#  13   -1.53   -1.54    0.80    2.05   -0.16    0.00    0.00      -0.39    7.97   -0.62
#  14    2.16   -2.22    1.52   -1.62    0.12    0.00    0.00      -0.04   -5.26    0.40
#  15    1.73   -1.04    0.24   -2.71    0.45    0.00    0.00      -1.33  -10.39    1.73
#  16   -0.13   -0.63    0.07    0.31   -0.15    0.00    0.00      -0.53    1.01   -0.49
#  17   -0.12   -0.48    0.06    0.31   -0.03    0.00    0.00      -0.27    1.33   -0.13
#  18    3.81   -0.45    0.01   -1.71    0.23    0.00    0.00       1.89   -8.33    1.12
#  19   -2.29   -0.37    0.01    0.94   -0.01    0.00    0.00      -1.72    4.32   -0.04
#  20    3.81   -0.67    0.06   -1.94   -0.04    0.00    0.00       1.22   -6.08   -0.12
#  21    0.39   -0.97    0.19    0.01   -0.11    0.00    0.00      -0.49    0.02   -0.31
#  22    9.72   -0.65    0.03   -3.62    0.08    0.00    0.00       5.55  -12.92    0.27
#  23   -7.36   -0.01    0.00    1.47    0.05    0.00    0.00      -5.85   17.13    0.54
#  24    0.37   -0.74    0.05   -0.17   -0.14    0.00    0.00      -0.63   -0.45   -0.37
#  25    2.31   -0.73    0.05   -1.49   -0.08    0.00    0.00       0.05   -4.08   -0.22
#  26    1.06   -0.63    0.04   -0.50   -0.05    0.00    0.00      -0.08   -1.42   -0.15
#  27    3.39   -0.57    0.05   -1.10   -0.06    0.00    0.00       1.71   -4.08   -0.22
#  28    0.21   -1.06    0.60    0.14   -0.12    0.00    0.00      -0.22    0.46   -0.38
#  29    1.20   -1.09    0.07   -0.35   -0.12    0.00    0.00      -0.29   -0.98   -0.33
#  30    1.47   -1.48    0.15   -0.76   -0.19    0.00    0.00      -0.81   -1.62   -0.40
#  31    1.37   -1.83    0.45   -0.88   -0.23    0.00    0.00      -1.13   -1.76   -0.46
#  32    0.23   -1.64    0.38   -0.34   -0.12    0.00    0.00      -1.50   -0.85   -0.30
#  33    0.41   -3.52    1.14   -0.45   -0.55    0.00    0.00      -2.97   -0.81   -0.99
#  34    0.52   -1.41    0.19   -0.57   -0.16    0.00    0.00      -1.44   -1.59   -0.46
#  35    0.62   -1.29    0.24   -0.57   -0.15    0.00    0.00      -1.15   -1.77   -0.45
#  36   -1.14   -0.71    0.19    0.32   -0.07    0.00    0.00      -1.41    1.18   -0.27
#  37    0.71   -0.70    0.12   -0.21   -0.06    0.00    0.00      -0.14   -1.05   -0.29
#  38    1.32   -0.57    0.05   -0.28   -0.07    0.00    0.00       0.45   -1.43   -0.34
#  39    0.69   -0.67    0.07   -0.40   -0.10    0.00    0.00      -0.41   -1.82   -0.46
#  40    0.04   -1.09    0.30   -0.21   -0.07    0.00    0.00      -1.03   -0.85   -0.30
#  41    0.05   -3.37    2.89   -0.31   -0.26    0.00    0.00      -0.99   -1.11   -0.95
#  42    0.04   -1.52    1.19   -0.24   -0.08    0.00    0.00      -0.61   -0.92   -0.30
#  43    0.02   -2.92    0.84   -0.43   -0.38    0.00    0.00      -2.86   -1.07   -0.95
#  44    0.21   -1.21    0.70   -0.30   -0.10    0.00    0.00      -0.70   -1.28   -0.42
#  45   -0.07   -0.30    0.08    0.42   -0.08    0.00    0.00       0.05    1.46   -0.28
#  46   -0.06   -0.19    0.01    0.40   -0.06    0.00    0.00       0.10    1.81   -0.27
#  47   -0.05   -0.16    0.05    0.12   -0.04    0.00    0.00      -0.07    0.89   -0.26
#  48   -0.29   -0.50    0.30    0.95   -0.05    0.00    0.00       0.41    2.84   -0.16
#  49   -0.19   -0.04    0.00    0.11   -0.01    0.00    0.00      -0.14    2.36   -0.22
#  50   -0.05   -0.03    0.00    0.02   -0.01    0.00    0.00      -0.06    0.72   -0.27
#  51   -0.05   -0.06    0.00    0.11   -0.02    0.00    0.00      -0.01    1.87   -0.27
#  52   -0.10   -0.02    0.00    0.04   -0.01    0.00    0.00      -0.09    1.53   -0.28
#  53   -0.02   -0.03    0.00    0.01   -0.01    0.00    0.00      -0.05    0.22   -0.28
#  54   -0.05   -0.02    0.00    0.02   -0.01    0.00    0.00      -0.06    0.78   -0.28
#  55   -0.02   -0.08    0.01    0.02   -0.03    0.00    0.00      -0.10    0.24   -0.28
#  56   -0.55   -0.36    0.08    0.37   -0.08    0.00    0.00      -0.53    1.12   -0.24
#  57   -0.12   -0.17    0.02    0.18   -0.05    0.00    0.00      -0.14    0.91   -0.28
#  58    0.06   -0.45    0.31    0.76   -0.05    0.00    0.00       0.64    3.30   -0.22
#  59   -0.34   -0.07    0.00    0.18   -0.02    0.00    0.00      -0.24    2.71   -0.28
#  60   -1.97   -0.30    0.05    1.33   -0.04    0.00    0.00      -0.93    5.04   -0.17
#  61   -2.55   -0.20    0.01    0.82   -0.05    0.00    0.00      -1.96    3.76   -0.21
#  62   -4.17   -0.43    0.16    1.61   -0.08    0.00    0.00      -2.90    5.35   -0.26
#  63   -4.41   -0.49    0.14    1.91   -0.08    0.00    0.00      -2.92    5.00   -0.20
#  64   -3.88   -0.40    0.07    1.90   -0.09    0.00    0.00      -2.39    6.06   -0.28
#  65   -3.16   -0.22    0.01    1.53   -0.06    0.00    0.00      -1.89    5.99   -0.22
#  66   -1.95   -0.33    0.04    0.83   -0.10    0.00    0.00      -1.51    2.27   -0.28
#  67   -0.71   -0.27    0.06    0.69   -0.05    0.00    0.00      -0.28    3.15   -0.25
#  68   -2.47   -0.28    0.05    0.91   -0.08    0.00    0.00      -1.87    3.17   -0.27
#  69   -3.31   -0.27    0.06    0.46   -0.06    0.00    0.00      -3.13    2.02   -0.28
#  70   -1.28   -0.12    0.01    0.35   -0.03    0.00    0.00      -1.07    3.11   -0.25
#  71   -5.27   -0.41    0.28    1.17   -0.06    0.00    0.00      -4.28    5.63   -0.28
#  72   -6.45   -0.78    1.49    1.72   -0.09    0.00    0.00      -4.11    5.29   -0.28
#  73   -2.03   -0.40    0.13    1.83   -0.09    0.00    0.00      -0.57    4.67   -0.24
#  74   -2.39   -0.43    0.10    0.58   -0.12    0.00    0.00      -2.25    1.38   -0.28
#  75   -0.46   -0.28    0.03    0.20   -0.07    0.00    0.00      -0.57    0.80   -0.28
#  76   -0.54   -0.26    0.08    0.50   -0.05    0.00    0.00      -0.27    2.88   -0.28
#  77   -1.54   -0.23    0.06    0.25   -0.05    0.00    0.00      -1.50    1.46   -0.28
#  78   -2.90   -0.33    0.11    0.80   -0.05    0.00    0.00      -2.37    2.90   -0.18
#  79   -2.15   -0.08    0.00    0.58   -0.02    0.00    0.00      -1.66    7.37   -0.21
#  80   -1.53   -0.09    0.00    0.43   -0.03    0.00    0.00      -1.22    3.85   -0.28
#  81   -0.91   -0.19    0.03    0.36   -0.04    0.00    0.00      -0.75    2.12   -0.26

@<TRIPOS>MOLECULE
          T526581        99
   81    85     0     0     0



@<TRIPOS>ATOM
      1 C1         -4.1655   -12.9310    92.0955 C.3        1           0.0213
      2 O1         -2.7620   -12.7173    91.9326 O.3        1          -0.2939
      3 C2         -2.3834   -11.6919    91.1232 C.ar       1           0.1495
      4 C3         -2.1898   -10.4297    91.6525 C.ar       1          -0.2124
      5 C4         -1.8006    -9.3770    90.8206 C.ar       1          -0.0661
      6 C5         -1.6078    -9.6031    89.4555 C.ar       1          -0.1818
      7 C6         -1.8027   -10.8672    88.9312 C.ar       1           0.1480
      8 O2         -1.6153   -11.0880    87.6024 O.3        1          -0.2954
      9 C7         -1.2230    -9.9672    86.8075 C.3        1           0.0221
     10 C8         -2.1856   -11.9159    89.7634 C.ar       1           0.0579
     11 O3         -2.3717   -13.1588    89.2465 O.3        1          -0.3124
     12 C9         -1.2376   -14.0279    89.2230 C.3        1           0.0346
     13 C10        -1.5936    -8.0280    91.3830 C.2        1           0.5668
     14 O4         -2.2574    -7.0927    90.9793 O.2        1          -0.5112
     15 N1         -0.6690    -7.8331    92.3441 N.am       1          -0.6136
     16 C11         0.1479    -8.9502    92.8408 C.3        1           0.0717
     17 C12         1.6168    -8.5229    92.7517 C.3        1           0.0447
     18 O5          1.7789    -7.2691    93.4186 O.3        1          -0.3563
     19 C13         1.0464    -6.1931    92.8281 C.3        1           0.1650
     20 C14         1.3518    -4.8942    93.5766 C.3        1          -0.1811
     21 C15         2.8503    -4.5969    93.4916 C.3        1          -0.0141
     22 N2          3.6039    -5.7013    94.0998 N.4        1          -0.3830
     23 H1          3.1761    -6.5791    93.8460 H          1           0.4210
     24 C16         3.5892    -5.5558    95.5603 C.3        1          -0.0153
     25 C17         4.3035    -6.7470    96.2026 C.3        1          -0.1389
     26 C18         5.7518    -6.7942    95.7073 C.3        1          -0.0538
     27 C19         5.7557    -6.8710    94.1779 C.3        1          -0.1403
     28 C20         4.9881    -5.6742    93.6120 C.3        1          -0.0059
     29 C21         6.4390    -8.0096    96.2747 C.ar       1          -0.0937
     30 C22         7.0955    -7.9285    97.4886 C.ar       1          -0.1032
     31 C23         7.7263    -9.0426    98.0091 C.ar       1          -0.1059
     32 C24         7.7003   -10.2393    97.3153 C.ar       1          -0.0277
     33 Cl1         8.4919   -11.6393    97.9689 Cl         1          -0.0535
     34 C25         7.0428   -10.3201    96.1007 C.ar       1          -0.1040
     35 C26         6.4079    -9.2065    95.5836 C.ar       1          -0.0950
     36 C27        -0.4482    -6.4971    92.9169 C.3        1           0.0779
     37 C28         1.4433    -6.0469    91.3817 C.ar       1          -0.0819
     38 C29         2.7198    -6.3910    90.9773 C.ar       1          -0.1115
     39 C30         3.0850    -6.2575    89.6511 C.ar       1          -0.0937
     40 C31         2.1728    -5.7797    88.7272 C.ar       1          -0.0222
     41 Cl2         2.6309    -5.6123    87.0610 Cl         1          -0.0274
     42 C32         0.8944    -5.4356    89.1320 C.ar       1          -0.0286
     43 Cl3        -0.2516    -4.8365    87.9737 Cl         1          -0.0262
     44 C33         0.5291    -5.5745    90.4591 C.ar       1          -0.0640
     45 H2         -4.3292   -13.7765    92.7635 H          1           0.1110
     46 H3         -4.6222   -12.0376    92.5216 H          1           0.0559
     47 H4         -4.6159   -13.1420    91.1255 H          1           0.0602
     48 H5         -2.3398   -10.2574    92.7080 H          1           0.1428
     49 H6         -1.3072    -8.7909    88.8103 H          1           0.1450
     50 H7         -1.1080   -10.2803    85.7697 H          1           0.0624
     51 H8         -1.9865    -9.1919    86.8707 H          1           0.0558
     52 H9         -0.2750    -9.5746    87.1757 H          1           0.1096
     53 H10        -1.5226   -14.9854    88.7869 H          1           0.0488
     54 H11        -0.4465   -13.5769    88.6239 H          1           0.0998
     55 H12        -0.8786   -14.1843    90.2402 H          1           0.0487
     56 H13        -0.1121    -9.1662    93.8771 H          1           0.1118
     57 H14        -0.0185    -9.8330    92.2235 H          1           0.0879
     58 H15         2.2449    -9.2744    93.2300 H          1           0.0576
     59 H16         1.9035    -8.4192    91.7052 H          1           0.1225
     60 H17         0.7926    -4.0746    93.1254 H          1           0.1042
     61 H18         1.0613    -5.0002    94.6217 H          1           0.1032
     62 H19         3.1410    -4.4907    92.4464 H          1           0.1396
     63 H20         3.0678    -3.6714    94.0249 H          1           0.1378
     64 H21         4.0996    -4.6337    95.8385 H          1           0.1330
     65 H22         2.5578    -5.5191    95.9110 H          1           0.1310
     66 H23         4.2930    -6.6362    97.2869 H          1           0.1166
     67 H24         3.7938    -7.6697    95.9254 H          1           0.0906
     68 H25         6.2765    -5.8943    96.0285 H          1           0.0994
     69 H26         6.7833    -6.8489    93.8149 H          1           0.1166
     70 H27         5.2761    -7.7963    93.8587 H          1           0.0908
     71 H28         4.9901    -5.7249    92.5233 H          1           0.1332
     72 H29         5.4679    -4.7495    93.9327 H          1           0.1316
     73 H30         7.1156    -6.9943    98.0300 H          1           0.1273
     74 H31         8.2397    -8.9790    98.9571 H          1           0.1376
     75 H32         7.0225   -11.2538    95.5585 H          1           0.1394
     76 H33         5.8908    -9.2705    94.6376 H          1           0.1343
     77 H34        -1.0094    -5.7544    92.3501 H          1           0.0932
     78 H35        -0.7635    -6.4854    93.9602 H          1           0.1140
     79 H36         3.4321    -6.7640    91.6983 H          1           0.1354
     80 H37         4.0826    -6.5258    89.3360 H          1           0.1504
     81 H38        -0.4693    -5.3101    90.7748 H          1           0.1546
@<TRIPOS>BOND
     1    1    2 1
     2    1   45 1
     3    1   46 1
     4    1   47 1
     5    2    3 1
     6    3   10 ar
     7    3    4 ar
     8    4    5 ar
     9    4   48 1
    10    5    6 ar
    11    5   13 1
    12    6    7 ar
    13    6   49 1
    14    7    8 1
    15    7   10 ar
    16    8    9 1
    17    9   50 1
    18    9   51 1
    19    9   52 1
    20   10   11 1
    21   11   12 1
    22   12   53 1
    23   12   54 1
    24   12   55 1
    25   13   14 2
    26   13   15 am
    27   15   36 1
    28   15   16 1
    29   16   17 1
    30   16   56 1
    31   16   57 1
    32   17   18 1
    33   17   58 1
    34   17   59 1
    35   18   19 1
    36   19   20 1
    37   19   36 1
    38   19   37 1
    39   20   21 1
    40   20   60 1
    41   20   61 1
    42   21   22 1
    43   21   62 1
    44   21   63 1
    45   22   23 1
    46   22   28 1
    47   22   24 1
    48   24   25 1
    49   24   64 1
    50   24   65 1
    51   25   26 1
    52   25   66 1
    53   25   67 1
    54   26   27 1
    55   26   29 1
    56   26   68 1
    57   27   28 1
    58   27   69 1
    59   27   70 1
    60   28   71 1
    61   28   72 1
    62   29   35 ar
    63   29   30 ar
    64   30   31 ar
    65   30   73 1
    66   31   32 ar
    67   31   74 1
    68   32   33 1
    69   32   34 ar
    70   34   35 ar
    71   34   75 1
    72   35   76 1
    73   36   77 1
    74   36   78 1
    75   37   44 ar
    76   37   38 ar
    77   38   39 ar
    78   38   79 1
    79   39   40 ar
    80   39   80 1
    81   40   41 1
    82   40   42 ar
    83   42   43 1
    84   42   44 ar
    85   44   81 1
##########                 Name:              T532797
##########          Protonation:                   43
##########               SMILES:   c1ccc(c(c1)CNc2[nH+]c(nc(n2)N3CC[NH2+]CC3)NCCc4ccc(cc4)O)Oc5ccc(cc5)C(F)(F)F
##########            Long Name:   thyl)phenoxy]phenyl]methylamino]-1,3,5-triazin-1-ium-2-yl]amino]ethyl]phenol
##########          FlexRecCode: 1
##########               Number:                   30
##########   Ligand Source File: /raidb/db2/rgc/tcams/tcams-0000995.db2.gz
##########           GlobalRank: 401
##########                 Rank:                    1
##########               Setnum:                  133
##########             Matchnum:                 4552
##########                Cloud:                    1
##########        Electrostatic:           -41.165241
##########        Van der Waals:           -27.184183
##########  Ligand Polar Desolv:             8.049768
########## Ligand Apolar Desolv:            -3.898003
##########      Internal Energy:             0.000000
##########      Receptor Energy: 0.0
########## Receptor Desolvation:             0.000000
########## Receptor Hydrophobic:             0.000000
##########         Total Energy: -64.2
##########        Ligand Charge:             2.000000
##########            Arbitrary:    +999.9990
##########     heavy atom count:   41
##########           pose count:    1
##########        Ligand Energy:             0.000000
# num electro vdwattr vdwrepu polsolv apolsol rdesolv rhydroe totalscore fullpol fullapo
#   1    5.57   -1.15    0.10   -2.50    0.49    0.00    0.00       2.51   -6.11    1.19
#   2   -1.70   -1.21    0.09    0.16   -0.12    0.00    0.00      -2.79    0.39   -0.31
#   3    1.52   -1.72    0.31   -1.23   -0.19    0.00    0.00      -1.30   -3.00   -0.46
#   4    1.59   -1.30    0.12   -0.76   -0.18    0.00    0.00      -0.53   -1.96   -0.46
#   5    3.04   -1.37    0.18   -0.65   -0.14    0.00    0.00       1.07   -1.69   -0.36
#   6    2.58   -1.23    0.19   -1.11   -0.10    0.00    0.00       0.33   -2.46   -0.23
#   7   -2.60   -0.83    0.09    1.18   -0.14    0.00    0.00      -2.29    3.30   -0.38
#   8   27.44   -2.70    2.43   -7.63    0.58    0.00    0.00      20.12  -22.55    1.72
#   9  -25.16   -2.23    1.36    7.35   -1.48    0.00    0.00     -20.15   23.95   -4.81
#  10   12.15   -1.27    0.29   -6.03    0.51    0.00    0.00       5.65  -21.58    1.84
#  11   -5.23   -1.02    0.24    5.72   -1.19    0.00    0.00      -1.48   22.48   -4.68
#  12    4.47   -0.82    0.08   -5.22    0.45    0.00    0.00      -1.04  -21.38    1.84
#  13  -16.18   -1.22    0.26    6.42   -1.30    0.00    0.00     -12.02   23.77   -4.81
#  14   12.66   -0.87    0.09   -5.01    0.40    0.00    0.00       7.28  -21.68    1.73
#  15   -1.09   -0.36    0.02    0.91   -0.07    0.00    0.00      -0.59    4.69   -0.37
#  16    1.30   -0.52    0.07   -0.47   -0.06    0.00    0.00       0.32   -3.03   -0.37
#  17    0.73   -1.27    0.58   -0.27   -0.11    0.00    0.00      -0.34   -1.13   -0.46
#  18    1.02   -1.54    1.26   -0.86   -0.11    0.00    0.00      -0.23   -3.66   -0.47
#  19    0.11   -0.63    0.22   -0.29   -0.07    0.00    0.00      -0.66   -2.00   -0.47
#  20    0.40   -0.28    0.03   -0.44   -0.04    0.00    0.00      -0.34   -4.35   -0.43
#  21   -0.59   -0.26    0.02    0.30   -0.03    0.00    0.00      -0.57    3.02   -0.31
#  22    0.94   -0.10    0.00   -0.34    0.03    0.00    0.00       0.53   -5.46    0.44
#  23   -0.37   -0.10    0.00    0.12   -0.01    0.00    0.00      -0.36    2.56   -0.18
#  24    0.10   -0.09    0.00   -0.10   -0.02    0.00    0.00      -0.12   -2.17   -0.46
#  25    0.02   -0.22    0.01   -0.11   -0.04    0.00    0.00      -0.33   -1.21   -0.44
#  26    0.51   -0.35    0.03   -0.35   -0.04    0.00    0.00      -0.21   -3.02   -0.38
#  27    0.30   -0.25    0.01   -0.14   -0.05    0.00    0.00      -0.13   -1.30   -0.44
#  28    0.86   -0.16    0.00   -0.15   -0.03    0.00    0.00       0.52   -2.39   -0.46
#  29   -2.33   -0.60    0.12    1.24   -0.02    0.00    0.00      -1.59    5.40   -0.07
#  30    0.74   -0.75    0.16   -0.53   -0.13    0.00    0.00      -0.51   -1.96   -0.48
#  31    1.53   -0.41    0.03   -0.48   -0.11    0.00    0.00       0.55   -1.86   -0.45
#  32    0.19   -1.19    0.82   -0.54   -0.12    0.00    0.00      -0.85   -1.97   -0.45
#  33   25.18   -3.29    3.54   -6.84    0.31    0.00    0.00      18.90  -22.03    0.99
#  34  -22.45   -0.12    0.02    5.05    0.11    0.00    0.00     -17.39   17.17    0.36
#  35    1.01   -0.88    0.23   -4.51    0.37    0.00    0.00      -3.77  -20.69    1.70
#  36   -0.14   -0.39    0.03    0.59   -0.10    0.00    0.00      -0.01    2.94   -0.48
#  37    0.03   -0.18    0.00    0.04   -0.05    0.00    0.00      -0.16    0.34   -0.48
#  38    0.65   -0.32    0.01   -3.88    0.15    0.00    0.00      -3.39  -22.77    0.89
#  39   -0.45   -0.01    0.00    2.71    0.07    0.00    0.00       2.32   22.55    0.56
#  40   -0.58    0.00    0.00    1.48    0.04    0.00    0.00       0.92   23.28    0.57
#  41    0.04   -0.29    0.01    0.07   -0.09    0.00    0.00      -0.27    0.35   -0.48
#  42   -0.19   -0.64    0.23    0.65   -0.11    0.00    0.00      -0.06    2.89   -0.48
#  43    2.71   -1.58    0.28   -0.85   -0.20    0.00    0.00       0.35   -1.96   -0.46
#  44    3.06   -1.45    0.22   -1.23   -0.19    0.00    0.00       0.41   -2.99   -0.46
#  45   -5.42   -0.02    0.00    1.47    0.28    0.00    0.00      -3.68    6.37    1.22
#  46   -0.59   -0.87    0.78    0.63   -0.12    0.00    0.00      -0.17    1.52   -0.28
#  47   -2.26   -0.25    0.02    1.14   -0.08    0.00    0.00      -1.43    4.24   -0.28
#  48   -2.64   -0.51    0.15    1.15   -0.10    0.00    0.00      -1.96    3.29   -0.28
#  49   -3.48   -0.58    0.13    1.62   -0.14    0.00    0.00      -2.45    3.31   -0.28
#  50   -2.05   -0.12    0.00    0.45   -0.03    0.00    0.00      -1.75    4.26   -0.27
#  51   -2.70   -0.43    0.18    1.39   -0.09    0.00    0.00      -1.64    4.36   -0.27
#  52  -24.23   -0.10    0.03    4.42    0.16    0.00    0.00     -19.72   15.82    0.58
#  53  -11.57   -0.01    0.00    2.58    0.10    0.00    0.00      -8.90   14.32    0.58
#  54   -0.36   -0.06    0.00    0.25   -0.02    0.00    0.00      -0.18    4.20   -0.27
#  55   -0.48   -0.18    0.02    0.89   -0.04    0.00    0.00       0.20    5.69   -0.27
#  56   -2.88   -0.26    0.05    1.17   -0.06    0.00    0.00      -1.99    5.52   -0.28
#  57   -1.32   -0.32    0.10    0.65   -0.07    0.00    0.00      -0.96    2.50   -0.28
#  58   -0.28   -0.07    0.01    0.12   -0.02    0.00    0.00      -0.24    1.64   -0.28
#  59   -0.22   -0.02    0.00    0.05   -0.01    0.00    0.00      -0.20    1.68   -0.23
#  60   -0.09   -0.01    0.00    0.09   -0.01    0.00    0.00      -0.02    4.99   -0.28
#  61   -0.06   -0.05    0.00    0.15   -0.01    0.00    0.00       0.04    2.96   -0.27
#  62   -1.22   -0.09    0.01    0.17   -0.02    0.00    0.00      -1.15    2.06   -0.27
#  63   -1.59   -0.04    0.00    0.13   -0.01    0.00    0.00      -1.51    3.43   -0.28
#  64   -0.13   -0.21    0.03    1.09   -0.06    0.00    0.00       0.71    5.32   -0.28
#  65   -0.26   -0.09    0.00    0.37   -0.02    0.00    0.00       0.01    4.12   -0.24
#  66   -0.17   -0.05    0.00    0.43   -0.01    0.00    0.00       0.19    8.41   -0.28
#  67   -0.17   -0.03    0.00    0.19   -0.01    0.00    0.00      -0.01    5.65   -0.28
#  68   -0.56   -0.15    0.01    1.49   -0.05    0.00    0.00       0.75    8.36   -0.28
#  69   -0.24   -0.05    0.00    0.31   -0.02    0.00    0.00       0.00    5.62   -0.28
#  70   -1.04   -0.16    0.03    0.52   -0.03    0.00    0.00      -0.68    3.96   -0.24
#  71   -0.19   -0.42    0.40    1.24   -0.07    0.00    0.00       0.97    5.27   -0.28
#  72   -5.27   -0.48    0.18    1.88   -0.12    0.00    0.00      -3.81    4.28   -0.28
#  73   -3.09   -0.57    0.28    0.56   -0.10    0.00    0.00      -2.93    1.55   -0.28

@<TRIPOS>MOLECULE
          T532797        43
   73    77     0     0     0



@<TRIPOS>ATOM
      1 O1          7.0092    -8.6752    97.2452 O.3        1          -0.4958
      2 C1          6.2538    -7.6590    96.7513 C.ar       1           0.1242
      3 C2          4.8844    -7.6402    96.9724 C.ar       1          -0.1430
      4 C3          4.1189    -6.6060    96.4698 C.ar       1          -0.0927
      5 C4          4.7164    -5.5904    95.7465 C.ar       1          -0.1180
      6 C5          3.8788    -4.4635    95.1988 C.3        1          -0.0828
      7 C6          3.3891    -4.8273    93.7957 C.3        1           0.0864
      8 N1          4.5413    -5.0501    92.9188 N.pl3      1          -0.6485
      9 C7          4.3460    -5.3922    91.5961 C.ar       1           0.7003
     10 N2          3.1121    -5.5144    91.1163 N.ar       1          -0.6247
     11 C8          2.9241    -5.8440    89.8424 C.ar       1           0.6924
     12 N3          3.9696    -6.0511    89.0480 N.ar       1          -0.6242
     13 C9          5.2034    -5.9294    89.5279 C.ar       1           0.6988
     14 N4          6.2890    -6.1444    88.7031 N.pl3      1          -0.6387
     15 C10         6.0815    -6.5072    87.2990 C.3        1           0.1433
     16 C11         7.2274    -7.3648    86.8273 C.ar       1          -0.1635
     17 C12         8.3492    -6.7772    86.2750 C.ar       1          -0.0536
     18 C13         9.4007    -7.5633    85.8420 C.ar       1          -0.1433
     19 C14         9.3329    -8.9394    85.9604 C.ar       1          -0.0470
     20 C15         8.2138    -9.5320    86.5118 C.ar       1          -0.1916
     21 C16         7.1593    -8.7448    86.9525 C.ar       1           0.1454
     22 O2          6.0597    -9.3249    87.5010 O.3        1          -0.2614
     23 C17         6.2260   -10.0746    88.6221 C.ar       1           0.1012
     24 C18         5.6067   -11.3117    88.7291 C.ar       1          -0.1257
     25 C19         5.7774   -12.0719    89.8697 C.ar       1          -0.0540
     26 C20         6.5645   -11.6009    90.9044 C.ar       1          -0.1687
     27 C21         7.1827   -10.3685    90.8003 C.ar       1          -0.0510
     28 C22         7.0199    -9.6070    89.6594 C.ar       1          -0.1224
     29 C23         6.7486   -12.4321    92.1479 C.3        1           0.5067
     30 F1          6.0321   -13.6269    92.0206 F          1          -0.1711
     31 F2          8.1071   -12.7191    92.3200 F          1          -0.1704
     32 F3          6.2778   -11.7219    93.2576 F          1          -0.1720
     33 N5          5.3915    -5.5944    90.8006 N.ar       1          -0.6323
     34 H1          6.2917    -5.5011    91.1497 H          1           0.4421
     35 N6          1.6432    -5.9712    89.3444 N.pl3      1          -0.5682
     36 C24         1.4112    -6.3409    87.9396 C.3        1           0.0921
     37 C25         0.4171    -7.5064    87.9020 C.3        1          -0.0218
     38 N7         -0.7974    -7.1367    88.6400 N.4        1          -0.5088
     39 H2         -1.1753    -6.2831    88.2570 H          1           0.4334
     40 H3         -1.4801    -7.8743    88.5527 H          1           0.4426
     41 C26        -0.4784    -6.9352    90.0590 C.3        1          -0.0217
     42 C27         0.4713    -5.7469    90.2048 C.3        1           0.0915
     43 C28         6.0811    -5.6064    95.5251 C.ar       1          -0.0925
     44 C29         6.8518    -6.6358    96.0302 C.ar       1          -0.1427
     45 H4          7.9519    -8.5986    97.0434 H          1           0.3982
     46 H5          4.4170    -8.4337    97.5367 H          1           0.1352
     47 H6          3.0527    -6.5909    96.6416 H          1           0.1280
     48 H7          3.0216    -4.2977    95.8512 H          1           0.0942
     49 H8          4.4793    -3.5552    95.1500 H          1           0.0937
     50 H9          2.7888    -5.7357    93.8446 H          1           0.0933
     51 H10         2.7834    -4.0123    93.3996 H          1           0.0935
     52 H11         5.4417    -4.9573    93.2679 H          1           0.4467
     53 H12         7.1891    -6.0553    89.0533 H          1           0.4454
     54 H13         5.1483    -7.0618    87.2010 H          1           0.1003
     55 H14         6.0317    -5.6023    86.6935 H          1           0.0998
     56 H15         8.4045    -5.7026    86.1810 H          1           0.1383
     57 H16        10.2766    -7.1019    85.4101 H          1           0.1394
     58 H17        10.1557    -9.5514    85.6211 H          1           0.1399
     59 H18         8.1612   -10.6068    86.6038 H          1           0.1373
     60 H19         4.9915   -11.6799    87.9213 H          1           0.1416
     61 H20         5.2953   -13.0347    89.9536 H          1           0.1494
     62 H21         7.7970   -10.0029    91.6100 H          1           0.1515
     63 H22         7.5069    -8.6465    89.5767 H          1           0.1461
     64 H23         0.9973    -5.4890    87.4002 H          1           0.1131
     65 H24         2.3516    -6.6468    87.4812 H          1           0.1481
     66 H25         0.1592    -7.7309    86.8670 H          1           0.1583
     67 H26         0.8692    -8.3847    88.3628 H          1           0.1387
     68 H27        -1.3959    -6.7388    90.6135 H          1           0.1584
     69 H28         0.0008    -7.8307    90.4545 H          1           0.1385
     70 H29         0.7907    -5.6602    91.2435 H          1           0.1479
     71 H30        -0.0390    -4.8340    89.8981 H          1           0.1127
     72 H31         6.5456    -4.8119    94.9602 H          1           0.1284
     73 H32         7.9182    -6.6461    95.8602 H          1           0.1355
@<TRIPOS>BOND
     1    1    2 1
     2    1   45 1
     3    2   44 ar
     4    2    3 ar
     5    3    4 ar
     6    3   46 1
     7    4    5 ar
     8    4   47 1
     9    5    6 1
    10    5   43 ar
    11    6    7 1
    12    6   48 1
    13    6   49 1
    14    7    8 1
    15    7   50 1
    16    7   51 1
    17    8    9 1
    18    8   52 1
    19    9   33 ar
    20    9   10 ar
    21   10   11 ar
    22   11   12 ar
    23   11   35 1
    24   12   13 ar
    25   13   14 1
    26   13   33 ar
    27   14   15 1
    28   14   53 1
    29   15   16 1
    30   15   54 1
    31   15   55 1
    32   16   21 ar
    33   16   17 ar
    34   17   18 ar
    35   17   56 1
    36   18   19 ar
    37   18   57 1
    38   19   20 ar
    39   19   58 1
    40   20   21 ar
    41   20   59 1
    42   21   22 1
    43   22   23 1
    44   23   28 ar
    45   23   24 ar
    46   24   25 ar
    47   24   60 1
    48   25   26 ar
    49   25   61 1
    50   26   27 ar
    51   26   29 1
    52   27   28 ar
    53   27   62 1
    54   28   63 1
    55   29   30 1
    56   29   31 1
    57   29   32 1
    58   33   34 1
    59   35   42 1
    60   35   36 1
    61   36   37 1
    62   36   64 1
    63   36   65 1
    64   37   38 1
    65   37   66 1
    66   37   67 1
    67   38   39 1
    68   38   40 1
    69   38   41 1
    70   41   42 1
    71   41   68 1
    72   41   69 1
    73   42   70 1
    74   42   71 1
    75   43   44 ar
    76   43   72 1
    77   44   73 1
##########                 Name:              T536723
##########          Protonation:                   19
##########               SMILES:   COCC[NH2+]Cc1cccc(c1)c2ccc3c(cc[nH+]c3c2)Nc4cc(c(cc4F)Cl)O
##########            Long Name:   5-hydroxy-anilino)quinolin-1-ium-7-yl]phenyl]methyl-(2-methoxyethyl)ammonium
##########          FlexRecCode: 1
##########               Number:                  290
##########   Ligand Source File: /raidb/db2/rgc/tcams/tcams-0001515.db2.gz
##########           GlobalRank: 402
##########                 Rank:                    1
##########               Setnum:                  165
##########             Matchnum:                 4747
##########                Cloud:                    1
##########        Electrostatic:           -42.144230
##########        Van der Waals:           -34.056301
##########  Ligand Polar Desolv:            15.122538
########## Ligand Apolar Desolv:            -3.107026
##########      Internal Energy:             0.000000
##########      Receptor Energy: 0.0
########## Receptor Desolvation:             0.000000
########## Receptor Hydrophobic:             0.000000
##########         Total Energy: -64.19
##########        Ligand Charge:             2.000000
##########            Arbitrary:    +999.9990
##########     heavy atom count:   32
##########           pose count:    1
##########        Ligand Energy:             0.000000
# num electro vdwattr vdwrepu polsolv apolsol rdesolv rhydroe totalscore fullpol fullapo
#   1   -0.05   -0.15    0.00    0.05    0.00    0.00    0.00      -0.15    0.66    0.03
#   2    1.34   -0.24    0.00   -1.44    0.16    0.00    0.00      -0.17  -11.55    1.32
#   3   -0.34   -0.44    0.02   -0.04   -0.03    0.00    0.00      -0.83   -0.15   -0.13
#   4    0.05   -0.59    0.04    0.44   -0.14    0.00    0.00      -0.20    1.34   -0.43
#   5   11.05   -0.62    0.06   -5.07    0.18    0.00    0.00       5.59  -20.52    0.73
#   6   -6.45    0.00    0.00    1.07    0.03    0.00    0.00      -5.36   17.92    0.54
#   7  -11.26   -0.02    0.00    4.16    0.12    0.00    0.00      -7.00   20.34    0.57
#   8   -0.98   -0.78    0.13    0.74   -0.12    0.00    0.00      -1.01    2.54   -0.42
#   9    3.33   -1.05    0.18   -1.09   -0.09    0.00    0.00       1.29   -4.34   -0.37
#  10    0.36   -0.65    0.06   -0.63   -0.09    0.00    0.00      -0.96   -3.04   -0.45
#  11    0.71   -0.43    0.02   -0.89   -0.08    0.00    0.00      -0.67   -4.95   -0.47
#  12    0.88   -0.44    0.02   -0.57   -0.08    0.00    0.00      -0.20   -3.18   -0.44
#  13    1.88   -0.94    0.21   -0.67   -0.09    0.00    0.00       0.40   -3.02   -0.41
#  14    2.27   -1.77    0.91   -0.65   -0.11    0.00    0.00       0.64   -2.44   -0.42
#  15   -1.33   -1.03    0.34    0.16   -0.09    0.00    0.00      -1.96    0.72   -0.41
#  16    3.12   -1.41    0.53   -0.91   -0.12    0.00    0.00       1.21   -3.28   -0.44
#  17    1.11   -1.32    0.30   -0.84   -0.14    0.00    0.00      -0.89   -2.68   -0.45
#  18    2.32   -0.86    0.04   -1.16   -0.12    0.00    0.00       0.21   -3.75   -0.40
#  19   -5.59   -1.30    0.17    3.55   -0.25    0.00    0.00      -3.42    8.83   -0.63
#  20   10.41   -1.56    0.24   -8.23    0.42    0.00    0.00       1.28  -17.91    0.92
#  21   -1.71   -1.48    0.17    2.27   -0.31    0.00    0.00      -1.07    5.03   -0.69
#  22    1.16   -1.46    0.20   -1.29   -0.14    0.00    0.00      -1.53   -3.50   -0.38
#  23   -0.77   -1.78    0.38    1.24   -0.13    0.00    0.00      -1.06    3.02   -0.31
#  24    0.90   -1.98    0.50   -4.20    0.50    0.00    0.00      -4.27   -9.73    1.15
#  25    0.42   -2.14    1.03   -1.00   -0.15    0.00    0.00      -1.84   -1.96   -0.29
#  26    0.09   -5.13    2.15   -0.88   -0.60    0.00    0.00      -4.36   -1.43   -0.97
#  27    1.12   -2.53    1.71   -0.98   -0.24    0.00    0.00      -0.92   -1.86   -0.46
#  28   -1.29   -2.02    0.44    0.29   -0.19    0.00    0.00      -2.76    0.54   -0.34
#  29    2.71   -1.58    0.28   -1.58   -0.28    0.00    0.00      -0.45   -2.56   -0.46
#  30    3.67   -2.08    0.44   -3.74   -0.16    0.00    0.00      -1.87   -8.23   -0.35
#  31   -4.22   -1.65    0.24    4.72   -0.44    0.00    0.00      -1.35   10.39   -0.96
#  32    9.11   -0.88    0.03   -5.61    0.33    0.00    0.00       2.98  -16.55    0.97
#  33   -9.00   -0.01    0.00    2.33    0.07    0.00    0.00      -6.61   18.72    0.58
#  34   -3.51   -0.73    0.03    1.36   -0.19    0.00    0.00      -3.03    5.34   -0.73
#  35    3.29   -0.67    0.05   -1.08   -0.10    0.00    0.00       1.49   -4.88   -0.43
#  36   -0.14   -0.03    0.00    0.04   -0.01    0.00    0.00      -0.13    1.37   -0.28
#  37   -0.09   -0.05    0.00    0.02   -0.01    0.00    0.00      -0.12    0.45   -0.28
#  38   -0.16   -0.06    0.00    0.09   -0.02    0.00    0.00      -0.15    1.56   -0.28
#  39   -1.13   -0.16    0.01    0.64   -0.05    0.00    0.00      -0.68    3.69   -0.28
#  40   -1.42   -0.20    0.03    0.28   -0.05    0.00    0.00      -1.35    1.62   -0.28
#  41   -4.66   -0.31    0.04    2.91   -0.09    0.00    0.00      -2.12    8.68   -0.28
#  42   -3.05   -0.19    0.02    1.07   -0.06    0.00    0.00      -2.21    5.21   -0.28
#  43   -5.24   -0.60    0.35    2.86   -0.09    0.00    0.00      -2.72    8.51   -0.28
#  44   -1.80   -0.15    0.01    0.93   -0.04    0.00    0.00      -1.05    6.19   -0.28
#  45   -0.46   -0.12    0.01    0.56   -0.03    0.00    0.00      -0.03    4.87   -0.28
#  46   -0.41   -0.06    0.00    0.15   -0.02    0.00    0.00      -0.33    2.54   -0.28
#  47   -1.40   -0.06    0.00    0.21   -0.01    0.00    0.00      -1.26    4.08   -0.21
#  48   -5.64   -0.70    0.74    2.28   -0.06    0.00    0.00      -3.38    7.99   -0.21
#  49   -4.35   -0.34    0.11    1.76   -0.05    0.00    0.00      -2.87    7.01   -0.21
#  50   -3.41   -0.60    0.47    1.39   -0.07    0.00    0.00      -2.20    4.99   -0.24
#  51   -7.86   -0.04    0.00    4.56    0.19    0.00    0.00      -3.15   12.21    0.50
#  52   -0.78   -0.25    0.04    1.43   -0.04    0.00    0.00       0.39    6.39   -0.18
#  53   -2.04   -0.04    0.00    4.03    0.49    0.00    0.00       2.44   10.11    1.22
#  54   -2.43   -0.59    0.28    0.98   -0.14    0.00    0.00      -1.90    1.98   -0.28
#  55   -2.89   -0.63    0.17    3.18   -0.12    0.00    0.00      -0.29    6.38   -0.24
#  56   -4.38   -0.48    0.20    5.25   -0.12    0.00    0.00       0.46   12.13   -0.28
#  57   -3.20   -0.10    0.00    0.65   -0.02    0.00    0.00      -2.67    6.37   -0.21

@<TRIPOS>MOLECULE
          T536723        19
   57    60     0     0     0



@<TRIPOS>ATOM
      1 C1         11.8089    -8.6273    88.2930 C.3        1           0.0296
      2 O1         10.6581    -7.8726    87.9083 O.3        1          -0.4043
      3 C2         10.8120    -6.4601    88.0600 C.3        1           0.0246
      4 C3          9.5262    -5.7568    87.6208 C.3        1          -0.0023
      5 N1          8.4067    -6.2193    88.4521 N.4        1          -0.5084
      6 H1          8.2980    -7.2167    88.3449 H          1           0.4360
      7 H2          8.5945    -6.0035    89.4197 H          1           0.4244
      8 C4          7.1721    -5.5441    88.0304 C.3        1           0.0424
      9 C5          6.0237    -6.0186    88.8831 C.ar       1          -0.1580
     10 C6          4.8195    -6.3579    88.2925 C.ar       1          -0.0684
     11 C7          3.7615    -6.7947    89.0688 C.ar       1          -0.1067
     12 C8          3.9017    -6.8942    90.4382 C.ar       1          -0.0633
     13 C9          5.1123    -6.5538    91.0385 C.ar       1          -0.0719
     14 C10         6.1769    -6.1192    90.2507 C.ar       1          -0.0708
     15 C11         5.2690    -6.6581    92.5100 C.ar       1           0.0466
     16 C12         6.5313    -6.9354    93.0568 C.ar       1          -0.1060
     17 C13         6.6980    -7.0354    94.4025 C.ar       1          -0.0460
     18 C14         5.6010    -6.8609    95.2591 C.ar       1          -0.1151
     19 C15         5.7459    -6.9590    96.6638 C.ar       1           0.3387
     20 N2          6.9787    -7.2311    97.2382 N.pl3      1          -0.6422
     21 C16         7.3657    -8.5556    97.4692 C.ar       1           0.1341
     22 C17         6.9102    -9.5681    96.6361 C.ar       1          -0.1654
     23 C18         7.2952   -10.8790    96.8676 C.ar       1           0.1569
     24 O2          6.8504   -11.8722    96.0524 O.3        1          -0.4760
     25 C19         8.1354   -11.1781    97.9315 C.ar       1          -0.0536
     26 Cl1         8.6171   -12.8208    98.2205 Cl         1          -0.0129
     27 C20         8.5896   -10.1691    98.7613 C.ar       1          -0.0883
     28 C21         8.2119    -8.8588    98.5304 C.ar       1           0.0809
     29 F1          8.6611    -7.8739    99.3388 F          1          -0.1217
     30 C22         4.6174    -6.7742    97.4476 C.ar       1          -0.2320
     31 C23         3.3973    -6.5028    96.8439 C.ar       1           0.2358
     32 N3          3.2748    -6.4140    95.5399 N.ar       1          -0.4907
     33 H3          2.4032    -6.2226    95.1592 H          1           0.4492
     34 C24         4.3215    -6.5808    94.7220 C.ar       1           0.1761
     35 C25         4.1712    -6.4759    93.3304 C.ar       1          -0.1439
     36 H4         11.6118    -9.6896    88.1483 H          1           0.1021
     37 H5         12.6602    -8.3291    87.6811 H          1           0.0578
     38 H6         12.0326    -8.4391    89.3431 H          1           0.0523
     39 H7         11.0150    -6.2268    89.1054 H          1           0.0746
     40 H8         11.6428    -6.1168    87.4433 H          1           0.1017
     41 H9          9.6436    -4.6793    87.7366 H          1           0.1472
     42 H10         9.3233    -5.9899    86.5757 H          1           0.1435
     43 H11         7.2896    -4.4666    88.1463 H          1           0.1415
     44 H12         6.9693    -5.7772    86.9851 H          1           0.1449
     45 H13         4.7052    -6.2812    87.2214 H          1           0.1428
     46 H14         2.8235    -7.0580    88.6025 H          1           0.1475
     47 H15         3.0747    -7.2350    91.0435 H          1           0.1392
     48 H16         7.1189    -5.8583    90.7102 H          1           0.1393
     49 H17         7.3792    -7.0710    92.4018 H          1           0.1510
     50 H18         7.6743    -7.2496    94.8116 H          1           0.1547
     51 H19         7.5725    -6.5031    97.4796 H          1           0.4353
     52 H20         6.2562    -9.3346    95.8089 H          1           0.1549
     53 H21         7.1720   -12.7519    96.2928 H          1           0.4064
     54 H22         9.2435   -10.4041    99.5881 H          1           0.1677
     55 H23         4.6871    -6.8416    98.5233 H          1           0.1896
     56 H24         2.5246    -6.3609    97.4641 H          1           0.2170
     57 H25         3.2036    -6.2581    92.9029 H          1           0.1613
@<TRIPOS>BOND
     1    1    2 1
     2    1   36 1
     3    1   37 1
     4    1   38 1
     5    2    3 1
     6    3    4 1
     7    3   39 1
     8    3   40 1
     9    4    5 1
    10    4   41 1
    11    4   42 1
    12    5    6 1
    13    5    7 1
    14    5    8 1
    15    8    9 1
    16    8   43 1
    17    8   44 1
    18    9   14 ar
    19    9   10 ar
    20   10   11 ar
    21   10   45 1
    22   11   12 ar
    23   11   46 1
    24   12   13 ar
    25   12   47 1
    26   13   14 ar
    27   13   15 1
    28   14   48 1
    29   15   35 ar
    30   15   16 ar
    31   16   17 ar
    32   16   49 1
    33   17   18 ar
    34   17   50 1
    35   18   34 ar
    36   18   19 ar
    37   19   20 1
    38   19   30 ar
    39   20   21 1
    40   20   51 1
    41   21   28 ar
    42   21   22 ar
    43   22   23 ar
    44   22   52 1
    45   23   24 1
    46   23   25 ar
    47   24   53 1
    48   25   26 1
    49   25   27 ar
    50   27   28 ar
    51   27   54 1
    52   28   29 1
    53   30   31 ar
    54   30   55 1
    55   31   32 ar
    56   31   56 1
    57   32   33 1
    58   32   34 ar
    59   34   35 ar
    60   35   57 1
##########                 Name:              T533328
##########          Protonation:                   12
##########               SMILES:   CN([C@H]1CC[NH+](CC1)Cc2cc(ccc2)F)c3[nH+]ccc(c3)NC(=O)c4sccc4
##########            Long Name:   iperidin-1-ium-4-yl]-methyl-amino]pyridin-1-ium-4-yl]thiophene-2-carboxamide
##########          FlexRecCode: 1
##########               Number:                  224
##########   Ligand Source File: /raidb/db2/rgc/tcams/tcams-0001114.db2.gz
##########           GlobalRank: 403
##########                 Rank:                    1
##########               Setnum:                  187
##########             Matchnum:                 3965
##########                Cloud:                    1
##########        Electrostatic:           -44.234344
##########        Van der Waals:           -23.609869
##########  Ligand Polar Desolv:             7.532711
########## Ligand Apolar Desolv:            -3.870114
##########      Internal Energy:             0.000000
##########      Receptor Energy: 0.0
########## Receptor Desolvation:             0.000000
########## Receptor Hydrophobic:             0.000000
##########         Total Energy: -64.18
##########        Ligand Charge:             2.000000
##########            Arbitrary:    +999.9990
##########     heavy atom count:   30
##########           pose count:    1
##########        Ligand Energy:             0.000000
# num electro vdwattr vdwrepu polsolv apolsol rdesolv rhydroe totalscore fullpol fullapo
#   1   -0.47   -0.23    0.01    0.09   -0.05    0.00    0.00      -0.65    0.69   -0.41
#   2   10.52   -0.49    0.02   -4.54    0.25    0.00    0.00       5.76  -24.74    1.35
#   3   -2.91   -0.58    0.12    1.06   -0.06    0.00    0.00      -2.37    4.85   -0.26
#   4    5.02   -1.30    0.79   -1.86   -0.05    0.00    0.00       2.59   -6.81   -0.20
#   5    1.31   -1.71    1.15   -0.46   -0.11    0.00    0.00       0.17   -1.45   -0.34
#   6    7.59   -0.48    0.04   -3.35    0.05    0.00    0.00       3.85  -16.93    0.27
#   7   -8.25   -0.01    0.00    2.20    0.05    0.00    0.00      -6.01   21.86    0.54
#   8   -0.53   -0.20    0.00    0.36   -0.05    0.00    0.00      -0.42    2.84   -0.36
#   9    1.17   -0.61    0.04   -0.53   -0.07    0.00    0.00       0.00   -2.56   -0.33
#  10    1.43   -1.06    0.15   -0.82   -0.14    0.00    0.00      -0.45   -2.67   -0.45
#  11    0.89   -2.14    1.04   -1.29   -0.19    0.00    0.00      -1.69   -3.24   -0.47
#  12    0.51   -2.00    0.53   -1.74   -0.19    0.00    0.00      -2.90   -4.25   -0.47
#  13   -0.37   -1.80    0.86    0.00   -0.11    0.00    0.00      -1.43   -0.01   -0.34
#  14    0.24   -1.94    1.84   -1.22   -0.17    0.00    0.00      -1.26   -3.40   -0.48
#  15    0.48   -0.74    0.08   -0.70   -0.08    0.00    0.00      -0.96   -3.33   -0.36
#  16    0.21   -0.33    0.02   -0.18   -0.06    0.00    0.00      -0.35   -0.99   -0.34
#  17    2.56   -0.25    0.01   -1.21   -0.03    0.00    0.00       1.07   -7.71   -0.22
#  18   -7.56   -0.63    0.04    4.09   -0.40    0.00    0.00      -4.46   19.50   -1.91
#  19    2.95   -0.84    0.10   -2.02   -0.11    0.00    0.00       0.08   -7.77   -0.43
#  20   -3.63   -1.07    0.13    2.46   -0.22    0.00    0.00      -2.33    7.59   -0.67
#  21    6.52   -1.32    0.12   -6.69    0.64    0.00    0.00      -0.73  -17.43    1.66
#  22   -4.01   -1.41    0.18    4.59   -0.23    0.00    0.00      -0.89   12.74   -0.65
#  23    1.69   -1.29    0.22   -3.08    0.11    0.00    0.00      -2.35   -9.44    0.35
#  24    2.55   -1.66    0.39   -2.23   -0.13    0.00    0.00      -1.07   -5.42   -0.32
#  25    0.30   -2.91    3.16   -0.94   -0.24    0.00    0.00      -0.62   -1.84   -0.47
#  26    2.33   -3.14    2.38   -1.93   -0.26    0.00    0.00      -0.62   -3.41   -0.46
#  27    1.31   -2.46    0.75   -2.54   -0.15    0.00    0.00      -3.09   -4.32   -0.25
#  28   -1.75   -2.30    0.23    4.24   -0.42    0.00    0.00       0.00    7.93   -0.79
#  29    2.47   -1.17    0.10   -2.80   -0.15    0.00    0.00      -1.54   -7.61   -0.41
#  30   -3.16   -0.84    0.04    2.49   -0.31    0.00    0.00      -1.78    7.88   -0.97
#  31    9.93   -0.62    0.02   -4.32    0.18    0.00    0.00       5.19  -19.64    0.80
#  32   -9.11   -0.01    0.00    2.12    0.04    0.00    0.00      -6.96   20.46    0.39
#  33   -0.38   -0.08    0.00    0.55   -0.02    0.00    0.00       0.06    6.26   -0.23
#  34   -1.03   -0.05    0.00    0.17   -0.01    0.00    0.00      -0.93    3.34   -0.24
#  35   -0.47   -0.06    0.00    0.38   -0.01    0.00    0.00      -0.15    6.33   -0.18
#  36   -4.02   -0.35    0.16    1.27   -0.06    0.00    0.00      -2.99    5.57   -0.26
#  37   -2.70   -0.13    0.01    0.70   -0.03    0.00    0.00      -2.15    5.48   -0.23
#  38   -6.14   -1.25    2.46    1.91   -0.09    0.00    0.00      -3.10    6.20   -0.28
#  39   -5.57   -0.61    0.31    2.65   -0.04    0.00    0.00      -3.27    8.26   -0.13
#  40   -6.44   -1.36    2.46    3.26   -0.10    0.00    0.00      -2.18    8.80   -0.28
#  41   -1.02   -0.04    0.00    0.32   -0.01    0.00    0.00      -0.75    8.53   -0.28
#  42   -1.56   -0.04    0.00    0.37   -0.01    0.00    0.00      -1.24    9.22   -0.27
#  43   -2.87   -0.16    0.01    1.30   -0.05    0.00    0.00      -1.77    7.66   -0.28
#  44   -3.94   -0.66    0.79    0.97   -0.10    0.00    0.00      -2.94    2.76   -0.28
#  45   -0.68   -0.43    0.07    0.38   -0.12    0.00    0.00      -0.77    0.89   -0.28
#  46   -0.39   -0.08    0.00    0.56   -0.02    0.00    0.00       0.08    6.76   -0.28
#  47   -1.29   -0.05    0.00    0.37   -0.01    0.00    0.00      -0.98    7.31   -0.27
#  48   -2.71   -0.23    0.05    0.90   -0.04    0.00    0.00      -2.03    4.41   -0.19
#  49   -1.41   -0.08    0.00    0.45   -0.02    0.00    0.00      -1.05    6.39   -0.28
#  50   -1.03   -0.04    0.00    0.16   -0.01    0.00    0.00      -0.91    4.32   -0.20
#  51   -2.08   -0.15    0.01    1.32   -0.03    0.00    0.00      -0.92    8.98   -0.22
#  52   -5.33   -0.02    0.00    3.75    0.16    0.00    0.00      -1.44   13.26    0.55
#  53   -2.61   -0.56    0.29    0.62   -0.12    0.00    0.00      -2.37    1.48   -0.28
#  54   -2.55   -0.97    0.97    0.84   -0.16    0.00    0.00      -1.87    1.45   -0.28
#  55   -0.31   -0.84    0.49    2.35   -0.17    0.00    0.00       1.52    3.94   -0.28
#  56   -3.01   -0.33    0.04    0.94   -0.08    0.00    0.00      -2.44    2.55   -0.22
#  57   -4.89   -0.18    0.01    1.77   -0.05    0.00    0.00      -3.35    9.72   -0.28

@<TRIPOS>MOLECULE
          T533328        12
   57    60     0     0     0



@<TRIPOS>ATOM
      1 C1          3.8099    -8.0822    91.4063 C.3        1           0.0546
      2 N1          4.8976    -7.5130    92.2058 N.pl3      1          -0.6048
      3 C2          6.1501    -7.1133    91.5594 C.3        1           0.1126
      4 C3          5.8625    -6.0497    90.4964 C.3        1          -0.1485
      5 C4          7.1683    -5.6841    89.7876 C.3        1          -0.0371
      6 N2          7.7354    -6.8768    89.1466 N.4        1          -0.3804
      7 H1          8.5732    -6.6211    88.6459 H          1           0.4271
      8 C5          6.7565    -7.4350    88.2042 C.3        1           0.0460
      9 C6          6.4279    -6.4064    87.1531 C.ar       1          -0.1389
     10 C7          7.4422    -5.6849    86.5513 C.ar       1          -0.1021
     11 C8          7.1425    -4.7408    85.5874 C.ar       1          -0.0768
     12 C9          5.8279    -4.5172    85.2236 C.ar       1          -0.1159
     13 C10         4.8114    -5.2394    85.8251 C.ar       1           0.1130
     14 F1          3.5260    -5.0217    85.4703 F          1          -0.1230
     15 C11         5.1134    -6.1887    86.7870 C.ar       1          -0.1412
     16 C12         8.0637    -7.8870    90.1601 C.3        1          -0.0129
     17 C13         6.7887    -8.3284    90.8817 C.3        1          -0.1737
     18 C14         4.7412    -7.3522    93.5778 C.ar       1           0.4543
     19 C15         5.6103    -7.9960    94.4488 C.ar       1          -0.2374
     20 C16         5.4413    -7.8256    95.8187 C.ar       1           0.3223
     21 N3          6.2925    -8.4540    96.7273 N.am       1          -0.6646
     22 C17         6.8591    -9.6359    96.4134 C.2        1           0.6239
     23 O1          6.6280   -10.1549    95.3372 O.2        1          -0.4851
     24 C18         7.7536   -10.2961    97.3681 C.2        1          -0.3119
     25 C19         8.1392    -9.8828    98.6346 C.2        1          -0.0242
     26 C20         8.9989   -10.7229    99.3005 C.2        1          -0.1938
     27 C21         9.4030   -11.8672    98.6955 C.2        1          -0.1807
     28 S1          8.6235   -11.8438    97.2076 S.3        1           0.2186
     29 C22         4.3986    -7.0094    96.2619 C.ar       1          -0.1688
     30 C23         3.5775    -6.4042    95.3359 C.ar       1           0.1679
     31 N4          3.7678    -6.5820    94.0412 N.ar       1          -0.5182
     32 H2          3.1762    -6.1399    93.4122 H          1           0.4383
     33 H3          2.9662    -8.3167    92.0553 H          1           0.0793
     34 H4          3.4980    -7.3607    90.6511 H          1           0.1006
     35 H5          4.1564    -8.9929    90.9176 H          1           0.1090
     36 H6          6.8340    -6.7097    92.3060 H          1           0.1183
     37 H7          5.1514    -6.4432    89.7701 H          1           0.1328
     38 H8          5.4451    -5.1622    90.9722 H          1           0.1228
     39 H9          6.9697    -4.9255    89.0305 H          1           0.1438
     40 H10         7.8783    -5.2916    90.5157 H          1           0.1480
     41 H11         7.1757    -8.3209    87.7272 H          1           0.1380
     42 H12         5.8486    -7.7075    88.7424 H          1           0.1484
     43 H13         8.4698    -5.8589    86.8349 H          1           0.1417
     44 H14         7.9355    -4.1774    85.1185 H          1           0.1515
     45 H15         5.5937    -3.7793    84.4706 H          1           0.1531
     46 H16         4.3216    -6.7557    87.2538 H          1           0.1402
     47 H17         8.5237    -8.7490    89.6770 H          1           0.1272
     48 H18         8.7606    -7.4623    90.8827 H          1           0.1424
     49 H19         7.0364    -9.0772    91.6342 H          1           0.1251
     50 H20         6.0900    -8.7527    90.1606 H          1           0.1029
     51 H21         6.4053    -8.6201    94.0681 H          1           0.1824
     52 H22         6.4768    -8.0404    97.5852 H          1           0.4308
     53 H23         7.7865    -8.9593    99.0695 H          1           0.1567
     54 H24         9.3482   -10.4749   100.2920 H          1           0.1521
     55 H25        10.0697   -12.6230    99.0835 H          1           0.2008
     56 H26         4.2374    -6.8546    97.3186 H          1           0.1971
     57 H27         2.7696    -5.7719    95.6734 H          1           0.2164
@<TRIPOS>BOND
     1    1    2 1
     2    1   33 1
     3    1   34 1
     4    1   35 1
     5    2    3 1
     6    2   18 1
     7    3   17 1
     8    3    4 1
     9    3   36 1
    10    4    5 1
    11    4   37 1
    12    4   38 1
    13    5    6 1
    14    5   39 1
    15    5   40 1
    16    6    7 1
    17    6    8 1
    18    6   16 1
    19    8    9 1
    20    8   41 1
    21    8   42 1
    22    9   15 ar
    23    9   10 ar
    24   10   11 ar
    25   10   43 1
    26   11   12 ar
    27   11   44 1
    28   12   13 ar
    29   12   45 1
    30   13   14 1
    31   13   15 ar
    32   15   46 1
    33   16   17 1
    34   16   47 1
    35   16   48 1
    36   17   49 1
    37   17   50 1
    38   18   31 ar
    39   18   19 ar
    40   19   20 ar
    41   19   51 1
    42   20   21 1
    43   20   29 ar
    44   21   22 am
    45   21   52 1
    46   22   23 2
    47   22   24 1
    48   24   28 1
    49   24   25 2
    50   25   26 1
    51   25   53 1
    52   26   27 2
    53   26   54 1
    54   27   28 1
    55   27   55 1
    56   29   30 ar
    57   29   56 1
    58   30   31 ar
    59   30   57 1
    60   31   32 1
##########                 Name:              T542688
##########          Protonation:                   97
##########               SMILES:   COc1ccc(cc1)C[NH+]2CC[C@@H](CC2)C[NH2+]Cc3cc(ccc3)c4ccccc4
##########            Long Name:   xyphenyl)methyl]piperidin-1-ium-4-yl]methyl-[(3-phenylphenyl)methyl]ammonium
##########          FlexRecCode: 1
##########               Number:                  241
##########   Ligand Source File: /raidb/db2/rgc/tcams/tcams-0002272.db2.gz
##########           GlobalRank: 404
##########                 Rank:                    1
##########               Setnum:                   84
##########             Matchnum:                 5832
##########                Cloud:                    1
##########        Electrostatic:           -42.196358
##########        Van der Waals:           -29.078058
##########  Ligand Polar Desolv:            10.927364
########## Ligand Apolar Desolv:            -3.808375
##########      Internal Energy:             0.000000
##########      Receptor Energy: 0.0
########## Receptor Desolvation:             0.000000
########## Receptor Hydrophobic:             0.000000
##########         Total Energy: -64.16
##########        Ligand Charge:             2.000000
##########            Arbitrary:    +999.9990
##########     heavy atom count:   30
##########           pose count:    1
##########        Ligand Energy:             0.000000
# num electro vdwattr vdwrepu polsolv apolsol rdesolv rhydroe totalscore fullpol fullapo
#   1   -0.17   -1.07    0.12    0.20    0.02    0.00    0.00      -0.90    0.37    0.03
#   2    3.57   -1.47    0.29   -2.88    0.48    0.00    0.00      -0.02   -5.62    0.93
#   3   -1.80   -1.80    0.53    0.29   -0.13    0.00    0.00      -2.91    0.67   -0.31
#   4    2.82   -1.98    0.46   -3.11   -0.22    0.00    0.00      -2.03   -6.02   -0.42
#   5    0.68   -1.68    0.26   -0.48   -0.17    0.00    0.00      -1.38   -1.04   -0.36
#   6    1.51   -1.57    0.35   -1.69   -0.12    0.00    0.00      -1.53   -4.69   -0.33
#   7   -0.33   -0.96    0.38    0.75   -0.09    0.00    0.00      -0.25    2.41   -0.30
#   8    7.94   -0.75    0.04   -5.54    0.14    0.00    0.00       1.82  -17.10    0.43
#   9   -9.40   -0.02    0.00    4.97    0.14    0.00    0.00      -4.30   20.27    0.56
#  10    0.28   -0.54    0.02   -0.27   -0.12    0.00    0.00      -0.63   -0.89   -0.38
#  11    2.75   -0.38    0.01   -1.55   -0.04    0.00    0.00       0.80   -7.29   -0.19
#  12    3.64   -0.64    0.15   -1.27   -0.03    0.00    0.00       1.84   -5.53   -0.15
#  13    0.14   -0.32    0.02   -0.01   -0.06    0.00    0.00      -0.24   -0.08   -0.37
#  14   12.38   -0.71    0.13   -5.68    0.16    0.00    0.00       6.28  -25.84    0.73
#  15  -14.62   -0.03    0.00    6.10    0.14    0.00    0.00      -8.41   24.19    0.57
#  16  -11.82   -0.01    0.00    3.97    0.07    0.00    0.00      -7.79   24.56    0.46
#  17   -0.56   -0.22    0.01    0.47   -0.06    0.00    0.00      -0.35    3.56   -0.42
#  18    2.01   -0.46    0.02   -0.63   -0.06    0.00    0.00       0.87   -3.68   -0.37
#  19    0.43   -0.60    0.04   -0.50   -0.09    0.00    0.00      -0.72   -2.52   -0.45
#  20    0.48   -1.45    0.55   -1.14   -0.13    0.00    0.00      -1.69   -4.20   -0.47
#  21    1.36   -1.51    0.54   -1.08   -0.14    0.00    0.00      -0.83   -3.36   -0.44
#  22    0.41   -0.71    0.04   -0.68   -0.12    0.00    0.00      -1.06   -2.41   -0.41
#  23    1.76   -0.58    0.03   -0.46   -0.08    0.00    0.00       0.68   -2.29   -0.42
#  24    1.57   -0.88    0.07   -0.32   -0.13    0.00    0.00       0.31   -1.02   -0.41
#  25    0.90   -0.53    0.02   -0.47   -0.10    0.00    0.00      -0.17   -2.14   -0.44
#  26    0.64   -0.67    0.05   -0.62   -0.12    0.00    0.00      -0.73   -2.46   -0.47
#  27    1.66   -1.71    0.47   -0.96   -0.18    0.00    0.00      -0.72   -2.48   -0.47
#  28    2.96   -3.30    1.75   -1.00   -0.22    0.00    0.00       0.19   -2.12   -0.47
#  29    3.02   -2.36    0.85   -1.05   -0.19    0.00    0.00       0.27   -2.44   -0.44
#  30    4.36   -0.64    0.12   -2.33   -0.05    0.00    0.00       1.47   -9.21   -0.19
#  31    0.14   -0.76    0.10   -0.14   -0.15    0.00    0.00      -0.81   -0.41   -0.42
#  32    0.13   -2.00    0.89   -0.55   -0.16    0.00    0.00      -1.68   -1.56   -0.45
#  33    0.85   -1.47    0.20   -1.84   -0.17    0.00    0.00      -2.43   -4.94   -0.46
#  34   -0.84   -0.52    0.18    0.55   -0.13    0.00    0.00      -0.76    1.16   -0.28
#  35   -0.45   -0.32    0.03    0.67   -0.11    0.00    0.00      -0.18    1.60   -0.26
#  36   -0.64   -0.26    0.02    0.38   -0.07    0.00    0.00      -0.57    1.33   -0.26
#  37   -2.59   -0.44    0.06    1.48   -0.11    0.00    0.00      -1.60    2.95   -0.22
#  38   -1.91   -0.39    0.09    3.28   -0.08    0.00    0.00       1.00    8.72   -0.21
#  39   -0.28   -0.34    0.23    1.45   -0.05    0.00    0.00       1.00    7.86   -0.28
#  40   -0.56   -0.42    0.21    2.81   -0.04    0.00    0.00       1.99    9.91   -0.15
#  41   -3.10   -0.16    0.00    0.53   -0.03    0.00    0.00      -2.75    3.48   -0.22
#  42   -4.24   -0.23    0.01    1.78   -0.07    0.00    0.00      -2.75    7.03   -0.28
#  43   -0.95   -0.12    0.01    0.58   -0.02    0.00    0.00      -0.50    5.40   -0.16
#  44   -2.32   -0.10    0.00    0.50   -0.03    0.00    0.00      -1.95    5.04   -0.28
#  45   -5.28   -0.64    0.75    1.79   -0.07    0.00    0.00      -3.45    7.11   -0.28
#  46   -1.55   -0.06    0.00    0.52   -0.02    0.00    0.00      -1.11    9.40   -0.28
#  47   -1.92   -0.07    0.00    0.55   -0.02    0.00    0.00      -1.46    8.07   -0.28
#  48   -1.18   -0.03    0.00    0.31   -0.01    0.00    0.00      -0.91    9.13   -0.28
#  49   -0.90   -0.06    0.00    0.42   -0.01    0.00    0.00      -0.55    8.35   -0.28
#  50   -0.39   -0.09    0.00    0.61   -0.02    0.00    0.00       0.11    7.11   -0.28
#  51   -0.64   -0.56    0.43    0.48   -0.07    0.00    0.00      -0.36    2.01   -0.28
#  52   -4.03   -0.69    0.74    0.22   -0.07    0.00    0.00      -3.84    0.69   -0.22
#  53   -2.84   -0.12    0.01    1.04   -0.03    0.00    0.00      -1.94    7.75   -0.22
#  54   -0.30   -0.06    0.00    0.35   -0.01    0.00    0.00      -0.01    6.54   -0.22
#  55   -0.24   -0.07    0.00    0.23   -0.02    0.00    0.00      -0.11    3.21   -0.28
#  56   -1.79   -0.48    0.27    0.45   -0.09    0.00    0.00      -1.64    1.34   -0.28
#  57   -3.65   -1.35    1.73    0.56   -0.17    0.00    0.00      -2.87    0.94   -0.28
#  58   -4.69   -0.80    0.58    0.64   -0.10    0.00    0.00      -4.38    1.39   -0.22
#  59   -1.53   -0.12    0.01    0.77   -0.02    0.00    0.00      -0.90    6.78   -0.21
#  60   -3.49   -0.31    0.11    1.71   -0.05    0.00    0.00      -2.03    7.53   -0.24
#  61   -5.60   -0.44    0.26    2.33   -0.09    0.00    0.00      -3.55    7.25   -0.28
#  62   -3.41   -0.23    0.02    1.67   -0.07    0.00    0.00      -2.02    6.77   -0.28
#  63    0.27   -0.69    0.81    1.60   -0.07    0.00    0.00       1.92    6.00   -0.28
#  64   -0.87   -0.22    0.01    0.19   -0.06    0.00    0.00      -0.94    0.86   -0.28

@<TRIPOS>MOLECULE
          T542688        97
   64    67     0     0     0



@<TRIPOS>ATOM
      1 C1          9.2855   -11.5148    97.8196 C.3        1           0.0198
      2 O1          8.7951   -10.2847    98.3567 O.3        1          -0.3032
      3 C2          7.7549    -9.6990    97.7071 C.ar       1           0.1753
      4 C3          7.2326    -8.5002    98.1706 C.ar       1          -0.2089
      5 C4          6.1756    -7.9066    97.5082 C.ar       1          -0.0559
      6 C5          5.6380    -8.5065    96.3844 C.ar       1          -0.2147
      7 C6          4.4846    -7.8570    95.6640 C.3        1           0.0427
      8 N1          4.7479    -6.4195    95.5143 N.4        1          -0.3829
      9 H1          4.8538    -6.0013    96.4263 H          1           0.4347
     10 C7          3.6222    -5.7876    94.8156 C.3        1          -0.0117
     11 C8          3.4070    -6.4718    93.4639 C.3        1          -0.1436
     12 C9          4.6770    -6.3324    92.6195 C.3        1          -0.1278
     13 C10         4.4974    -7.0822    91.2979 C.3        1          -0.0076
     14 N2          5.4641    -6.5777    90.3135 N.4        1          -0.5113
     15 H2          5.3091    -5.5919    90.1646 H          1           0.4306
     16 H3          6.4014    -6.7226    90.6577 H          1           0.4243
     17 C11         5.2917    -7.2976    89.0447 C.3        1           0.0480
     18 C12         6.2833    -6.7801    88.0348 C.ar       1          -0.1682
     19 C13         5.8717    -6.4993    86.7442 C.ar       1          -0.0975
     20 C14         6.7765    -6.0241    85.8124 C.ar       1          -0.1043
     21 C15         8.0961    -5.8268    86.1661 C.ar       1          -0.0768
     22 C16         8.5160    -6.1074    87.4645 C.ar       1          -0.0209
     23 C17         7.5991    -6.5816    88.4007 C.ar       1          -0.0938
     24 C18         9.9334    -5.8978    87.8504 C.ar       1          -0.0741
     25 C19        10.8589    -6.9284    87.6993 C.ar       1          -0.1086
     26 C20        12.1762    -6.7278    88.0594 C.ar       1          -0.1172
     27 C21        12.5781    -5.5065    88.5695 C.ar       1          -0.1006
     28 C22        11.6635    -4.4800    88.7216 C.ar       1          -0.1113
     29 C23        10.3449    -4.6678    88.3598 C.ar       1          -0.1015
     30 C24         5.8586    -6.9286    93.3901 C.3        1          -0.1644
     31 C25         5.9819    -6.2275    94.7430 C.3        1          -0.0049
     32 C26         6.1571    -9.7010    95.9202 C.ar       1          -0.0485
     33 C27         7.2174   -10.2960    96.5760 C.ar       1          -0.1473
     34 H4         10.1132   -11.8739    98.4312 H          1           0.1151
     35 H5          8.4858   -12.2556    97.8195 H          1           0.0629
     36 H6          9.6313   -11.3532    96.7987 H          1           0.0641
     37 H7          7.6518    -8.0317    99.0487 H          1           0.1425
     38 H8          5.7687    -6.9734    97.8686 H          1           0.1285
     39 H9          4.3699    -8.3099    94.6793 H          1           0.1382
     40 H10         3.5698    -8.0008    96.2389 H          1           0.1318
     41 H11         2.7199    -5.8849    95.4193 H          1           0.1412
     42 H12         3.8403    -4.7314    94.6572 H          1           0.1354
     43 H13         3.1886    -7.5281    93.6213 H          1           0.1008
     44 H14         2.5720    -6.0000    92.9460 H          1           0.1247
     45 H15         4.8667    -5.2782    92.4176 H          1           0.1161
     46 H16         4.6650    -8.1472    91.4588 H          1           0.1387
     47 H17         3.4849    -6.9257    90.9261 H          1           0.1454
     48 H18         5.4591    -8.3626    89.2055 H          1           0.1398
     49 H19         4.2792    -7.1410    88.6728 H          1           0.1426
     50 H20         4.8402    -6.6522    86.4633 H          1           0.1323
     51 H21         6.4500    -5.8072    84.8061 H          1           0.1409
     52 H22         8.8019    -5.4559    85.4375 H          1           0.1404
     53 H23         7.9184    -6.7972    89.4096 H          1           0.1324
     54 H24        10.5461    -7.8824    87.3016 H          1           0.1191
     55 H25        12.8943    -7.5259    87.9431 H          1           0.1292
     56 H26        13.6097    -5.3539    88.8503 H          1           0.1317
     57 H27        11.9826    -3.5284    89.1207 H          1           0.1332
     58 H28         9.6326    -3.8643    88.4748 H          1           0.1282
     59 H29         5.6910    -7.9943    93.5460 H          1           0.1054
     60 H30         6.7757    -6.7832    92.8195 H          1           0.1083
     61 H31         6.1497    -5.1620    94.5861 H          1           0.1360
     62 H32         6.8229    -6.6496    95.2930 H          1           0.1410
     63 H33         5.7355   -10.1674    95.0420 H          1           0.1390
     64 H34         7.6249   -11.2270    96.2109 H          1           0.1472
@<TRIPOS>BOND
     1    1    2 1
     2    1   34 1
     3    1   35 1
     4    1   36 1
     5    2    3 1
     6    3   33 ar
     7    3    4 ar
     8    4    5 ar
     9    4   37 1
    10    5    6 ar
    11    5   38 1
    12    6    7 1
    13    6   32 ar
    14    7    8 1
    15    7   39 1
    16    7   40 1
    17    8    9 1
    18    8   31 1
    19    8   10 1
    20   10   11 1
    21   10   41 1
    22   10   42 1
    23   11   12 1
    24   11   43 1
    25   11   44 1
    26   12   13 1
    27   12   30 1
    28   12   45 1
    29   13   14 1
    30   13   46 1
    31   13   47 1
    32   14   15 1
    33   14   16 1
    34   14   17 1
    35   17   18 1
    36   17   48 1
    37   17   49 1
    38   18   23 ar
    39   18   19 ar
    40   19   20 ar
    41   19   50 1
    42   20   21 ar
    43   20   51 1
    44   21   22 ar
    45   21   52 1
    46   22   23 ar
    47   22   24 1
    48   23   53 1
    49   24   29 ar
    50   24   25 ar
    51   25   26 ar
    52   25   54 1
    53   26   27 ar
    54   26   55 1
    55   27   28 ar
    56   27   56 1
    57   28   29 ar
    58   28   57 1
    59   29   58 1
    60   30   31 1
    61   30   59 1
    62   30   60 1
    63   31   61 1
    64   31   62 1
    65   32   33 ar
    66   32   63 1
    67   33   64 1
##########                 Name:              T525401
##########          Protonation:                   24
##########               SMILES:   c1ccc(cc1)CCN2CC[NH+](CC2)[C@H]3CCN(C[C@@H]3O)Cc4ccc(c(c4)Cl)O
##########            Long Name:   o-4-hydroxy-phenyl)methyl]-4-(4-phenethylpiperazin-1-ium-1-yl)piperidin-3-ol
##########          FlexRecCode: 1
##########               Number:                   33
##########   Ligand Source File: /raidb/db2/rgc/tcams/tcams-0000128.db2.gz
##########           GlobalRank: 405
##########                 Rank:                    1
##########               Setnum:                  140
##########             Matchnum:                 2312
##########                Cloud:                    1
##########        Electrostatic:           -41.147675
##########        Van der Waals:           -28.061750
##########  Ligand Polar Desolv:             5.785991
########## Ligand Apolar Desolv:            -0.722987
##########      Internal Energy:             0.000000
##########      Receptor Energy: 0.0
########## Receptor Desolvation:             0.000000
########## Receptor Hydrophobic:             0.000000
##########         Total Energy: -64.15
##########        Ligand Charge:             1.000000
##########            Arbitrary:    +999.9990
##########     heavy atom count:   30
##########           pose count:    1
##########        Ligand Energy:             0.000000
# num electro vdwattr vdwrepu polsolv apolsol rdesolv rhydroe totalscore fullpol fullapo
#   1   23.31   -3.58    3.33   -6.49    0.71    0.00    0.00      17.28  -14.94    1.63
#   2   -1.42   -0.75    0.11    0.53   -0.03    0.00    0.00      -1.57    1.83   -0.11
#   3   -0.50   -0.63    0.10    0.16   -0.10    0.00    0.00      -0.97    0.63   -0.41
#   4    4.75   -0.36    0.01   -1.57    0.46    0.00    0.00       3.29  -11.40    3.35
#   5   -0.57   -0.27    0.01    0.30   -0.05    0.00    0.00      -0.58    1.93   -0.32
#   6    0.26   -0.46    0.02   -0.17   -0.06    0.00    0.00      -0.41   -1.00   -0.34
#   7    0.70   -0.76    0.07   -0.28   -0.11    0.00    0.00      -0.38   -1.10   -0.45
#   8    1.38   -1.32    0.35   -0.49   -0.15    0.00    0.00      -0.24   -1.52   -0.46
#   9   -0.45   -1.53    0.55    0.12   -0.10    0.00    0.00      -1.40    0.39   -0.31
#  10    1.11   -2.33    1.36   -1.17    0.43    0.00    0.00      -0.60   -3.07    1.14
#  11    0.14   -0.78    0.15   -0.21   -0.06    0.00    0.00      -0.78   -0.97   -0.29
#  12    0.08   -1.07    0.22   -0.13   -0.17    0.00    0.00      -1.07   -0.75   -0.97
#  13    0.19   -0.43    0.02   -0.17   -0.06    0.00    0.00      -0.45   -1.09   -0.35
#  14   -0.49   -0.24    0.01    0.14   -0.06    0.00    0.00      -0.64    0.97   -0.41
#  15    2.50   -0.37    0.03   -0.91   -0.03    0.00    0.00       1.20   -4.85   -0.17
#  16   -1.12   -0.72    0.20    0.44   -0.04    0.00    0.00      -1.24    1.81   -0.17
#  17   11.75   -0.96    0.20   -3.63    0.09    0.00    0.00       7.45  -10.68    0.26
#  18  -16.60   -0.02    0.00    4.35    0.16    0.00    0.00     -12.12   14.24    0.51
#  19    1.70   -1.07    0.30   -0.42   -0.13    0.00    0.00       0.37   -1.09   -0.35
#  20   -0.89   -1.37    0.39    0.38   -0.21    0.00    0.00      -1.69    0.81   -0.44
#  21    9.62   -2.06    1.27   -5.84    1.51    0.00    0.00       4.51  -13.03    3.36
#  22   -0.62   -0.82    0.06    0.56   -0.14    0.00    0.00      -0.95    1.37   -0.33
#  23    1.12   -1.03    0.11   -0.63   -0.11    0.00    0.00      -0.54   -1.28   -0.23
#  24    0.99   -1.59    0.32   -0.40   -0.15    0.00    0.00      -0.84   -0.94   -0.36
#  25    1.36   -2.35    1.45   -0.76   -0.23    0.00    0.00      -0.55   -1.46   -0.45
#  26    0.88   -2.30    0.75   -0.77   -0.27    0.00    0.00      -1.70   -1.34   -0.47
#  27    0.85   -1.83    0.23   -0.69   -0.27    0.00    0.00      -1.71   -1.21   -0.47
#  28    0.67   -1.51    0.18   -0.53   -0.21    0.00    0.00      -1.40   -1.16   -0.47
#  29    0.72   -1.33    0.14   -0.53   -0.17    0.00    0.00      -1.17   -1.42   -0.45
#  30   -0.60   -1.25    0.33    0.30   -0.18    0.00    0.00      -1.39    0.72   -0.43
#  31    1.17   -0.55    0.02   -0.51   -0.10    0.00    0.00       0.03   -1.62   -0.32
#  32  -25.02   -0.20    0.06    5.05    0.56    0.00    0.00     -19.55   11.04    1.22
#  33   -1.75   -0.13    0.00    0.40   -0.02    0.00    0.00      -1.49    3.19   -0.17
#  34   -1.14   -0.36    0.25    0.39   -0.06    0.00    0.00      -0.91    1.95   -0.28
#  35   -2.26   -0.23    0.03    0.37   -0.06    0.00    0.00      -2.15    1.61   -0.28
#  36   -0.10   -0.11    0.01    0.32   -0.02    0.00    0.00       0.10    2.73   -0.18
#  37   -1.16   -0.08    0.00    0.15   -0.02    0.00    0.00      -1.11    2.09   -0.27
#  38   -1.91   -0.16    0.01    0.33   -0.04    0.00    0.00      -1.77    2.17   -0.28
#  39   -2.13   -0.35    0.11    0.30   -0.08    0.00    0.00      -2.14    1.02   -0.28
#  40   -4.23   -0.08    0.01    1.66    0.53    0.00    0.00      -2.10    3.81    1.22
#  41   -0.18   -0.06    0.00    0.18   -0.01    0.00    0.00      -0.07    3.67   -0.24
#  42   -0.27   -0.10    0.01    0.10   -0.02    0.00    0.00      -0.28    1.05   -0.21
#  43   -1.24   -0.05    0.00    0.09   -0.01    0.00    0.00      -1.21    1.75   -0.28
#  44   -0.60   -0.16    0.03    0.40   -0.02    0.00    0.00      -0.35    3.11   -0.12
#  45   -1.20   -0.11    0.01    0.39   -0.02    0.00    0.00      -0.94    3.68   -0.22
#  46   -6.17   -0.55    0.68    1.01   -0.06    0.00    0.00      -5.08    4.72   -0.28
#  47   -2.88   -0.21    0.02    0.73   -0.03    0.00    0.00      -2.36    3.98   -0.17
#  48   -6.41   -0.93    1.89    1.91   -0.10    0.00    0.00      -3.64    5.33   -0.28
#  49   -3.16   -0.62    0.28    1.01   -0.13    0.00    0.00      -2.61    2.22   -0.28
#  50   -3.21   -0.67    0.48    1.56   -0.14    0.00    0.00      -1.99    3.05   -0.28
#  51   -0.29   -0.40    0.09    0.67   -0.05    0.00    0.00       0.01    2.13   -0.17
#  52   -1.13   -0.18    0.01    0.18   -0.05    0.00    0.00      -1.17    1.08   -0.28
#  53   -1.54   -0.54    0.25    0.24   -0.09    0.00    0.00      -1.67    0.75   -0.28
#  54   -1.22   -0.36    0.03    1.01   -0.10    0.00    0.00      -0.64    2.16   -0.21
#  55   -1.92   -0.55    0.20    1.45   -0.13    0.00    0.00      -0.95    3.12   -0.28
#  56   -0.67   -0.58    0.16    0.65   -0.16    0.00    0.00      -0.61    1.12   -0.28
#  57   -1.16   -0.48    0.10    0.31   -0.15    0.00    0.00      -1.37    0.59   -0.28
#  58   -0.72   -0.35    0.07    0.23   -0.08    0.00    0.00      -0.86    0.75   -0.28
#  59   -0.69   -0.22    0.02    0.30   -0.06    0.00    0.00      -0.65    1.40   -0.28
#  60   -2.07   -0.39    0.06    1.00   -0.09    0.00    0.00      -1.50    2.55   -0.23
#  61   -2.72   -0.90    0.82    1.14   -0.10    0.00    0.00      -1.77    3.09   -0.28
#  62   -2.63   -0.14    0.00    0.61   -0.03    0.00    0.00      -2.18    5.26   -0.22
#  63   -1.35   -0.18    0.03    0.67   -0.02    0.00    0.00      -0.86    4.24   -0.15

@<TRIPOS>MOLECULE
          T525401        24
   63    66     0     0     0



@<TRIPOS>ATOM
      1 O1          3.7445    -3.9509    92.6972 O.3        1          -0.5674
      2 C1          3.4448    -5.3480    92.6996 C.3        1           0.0512
      3 C2          2.9562    -5.7682    91.3115 C.3        1           0.0283
      4 N1          2.6681    -7.2081    91.3077 N.3        1          -0.5154
      5 C3          1.5905    -7.5318    92.2522 C.3        1           0.0900
      6 C4          0.2586    -7.2124    91.6235 C.ar       1          -0.0904
      7 C5         -0.2921    -5.9533    91.7761 C.ar       1          -0.0720
      8 C6         -1.5130    -5.6574    91.2011 C.ar       1          -0.1282
      9 C7         -2.1867    -6.6245    90.4699 C.ar       1           0.1287
     10 O2         -3.3878    -6.3354    89.9027 O.3        1          -0.4854
     11 C8         -1.6322    -7.8879    90.3177 C.ar       1          -0.0650
     12 Cl1        -2.4716    -9.1011    89.4029 Cl         1          -0.0485
     13 C9         -0.4075    -8.1769    90.8907 C.ar       1          -0.0961
     14 C10         3.8755    -7.9920    91.5978 C.3        1           0.0514
     15 C11         4.3914    -7.6382    92.9945 C.3        1          -0.1856
     16 C12         4.7062    -6.1409    93.0529 C.3        1           0.0368
     17 N2          5.1466    -5.7844    94.4082 N.4        1          -0.3724
     18 H1          5.0342    -4.7914    94.5479 H          1           0.4310
     19 C13         6.5609    -6.1447    94.5739 C.3        1          -0.0531
     20 C14         7.0252    -5.7563    95.9792 C.3        1           0.0335
     21 N3          6.2032    -6.4581    96.9751 N.3        1          -0.5233
     22 C15         6.4172    -7.9098    96.9054 C.3        1           0.0482
     23 C16         7.7088    -8.2709    97.6416 C.3        1          -0.0766
     24 C17         7.9283    -9.7601    97.5701 C.ar       1          -0.0951
     25 C18         8.5900   -10.4112    98.5944 C.ar       1          -0.1188
     26 C19         8.7913   -11.7772    98.5288 C.ar       1          -0.1141
     27 C20         8.3305   -12.4923    97.4392 C.ar       1          -0.1154
     28 C21         7.6679   -11.8413    96.4154 C.ar       1          -0.1130
     29 C22         7.4629   -10.4759    96.4829 C.ar       1          -0.1129
     30 C23         4.7816    -6.1264    96.8057 C.3        1           0.0296
     31 C24         4.3358    -6.5120    95.3934 C.3        1          -0.0606
     32 H2          4.4282    -3.6964    92.0625 H          1           0.4086
     33 H3          2.6682    -5.5524    93.4366 H          1           0.0786
     34 H4          2.0501    -5.2159    91.0629 H          1           0.1035
     35 H5          3.7282    -5.5503    90.5735 H          1           0.1016
     36 H6          1.6305    -8.5928    92.4992 H          1           0.0437
     37 H7          1.7142    -6.9424    93.1606 H          1           0.0969
     38 H8          0.2324    -5.2006    92.3458 H          1           0.1371
     39 H9         -1.9425    -4.6738    91.3211 H          1           0.1442
     40 H10        -3.6912    -5.4315    90.0635 H          1           0.3994
     41 H11         0.0272    -9.1581    90.7689 H          1           0.1260
     42 H12         3.6369    -9.0547    91.5572 H          1           0.1054
     43 H13         4.6431    -7.7638    90.8585 H          1           0.0954
     44 H14         3.6295    -7.8791    93.7359 H          1           0.0910
     45 H15         5.2964    -8.2087    93.2034 H          1           0.1027
     46 H16         5.4958    -5.9064    92.3389 H          1           0.1468
     47 H17         6.6807    -7.2193    94.4356 H          1           0.1288
     48 H18         7.1600    -5.6142    93.8336 H          1           0.1386
     49 H19         8.0707    -6.0371    96.1075 H          1           0.1262
     50 H20         6.9185    -4.6798    96.1130 H          1           0.1063
     51 H21         5.5770    -8.4236    97.3724 H          1           0.0374
     52 H22         6.4958    -8.2158    95.8622 H          1           0.0935
     53 H23         8.5491    -7.7570    97.1746 H          1           0.0895
     54 H24         7.6302    -7.9649    98.6848 H          1           0.0719
     55 H25         8.9500    -9.8525    99.4457 H          1           0.1139
     56 H26         9.3089   -12.2858    99.3287 H          1           0.1226
     57 H27         8.4884   -13.5594    97.3877 H          1           0.1248
     58 H28         7.3083   -12.3999    95.5640 H          1           0.1259
     59 H29         6.9421    -9.9679    95.6848 H          1           0.1234
     60 H30         4.1900    -6.6772    97.5369 H          1           0.1266
     61 H31         4.6378    -5.0560    96.9530 H          1           0.1060
     62 H32         3.2852    -6.2540    95.2612 H          1           0.1331
     63 H33         4.4672    -7.5847    95.2511 H          1           0.1310
@<TRIPOS>BOND
     1    1    2 1
     2    1   32 1
     3    2   16 1
     4    2    3 1
     5    2   33 1
     6    3    4 1
     7    3   34 1
     8    3   35 1
     9    4    5 1
    10    4   14 1
    11    5    6 1
    12    5   36 1
    13    5   37 1
    14    6   13 ar
    15    6    7 ar
    16    7    8 ar
    17    7   38 1
    18    8    9 ar
    19    8   39 1
    20    9   10 1
    21    9   11 ar
    22   10   40 1
    23   11   12 1
    24   11   13 ar
    25   13   41 1
    26   14   15 1
    27   14   42 1
    28   14   43 1
    29   15   16 1
    30   15   44 1
    31   15   45 1
    32   16   17 1
    33   16   46 1
    34   17   18 1
    35   17   31 1
    36   17   19 1
    37   19   20 1
    38   19   47 1
    39   19   48 1
    40   20   21 1
    41   20   49 1
    42   20   50 1
    43   21   22 1
    44   21   30 1
    45   22   23 1
    46   22   51 1
    47   22   52 1
    48   23   24 1
    49   23   53 1
    50   23   54 1
    51   24   29 ar
    52   24   25 ar
    53   25   26 ar
    54   25   55 1
    55   26   27 ar
    56   26   56 1
    57   27   28 ar
    58   27   57 1
    59   28   29 ar
    60   28   58 1
    61   29   59 1
    62   30   31 1
    63   30   60 1
    64   30   61 1
    65   31   62 1
    66   31   63 1
##########                 Name:              T526652
##########          Protonation:                   11
##########               SMILES:   c1ccc(cc1)C(c2ccccc2)N3CC[NH+](CC3)[C@H](c4cc5ccccc5o4)C(=O)NCc6cccc7c6cccc7
##########            Long Name:   ydrylpiperazin-1-ium-1-yl)-2-(benzofuran-2-yl)-N-(1-naphthylmethyl)acetamide
##########          FlexRecCode: 1
##########               Number:                  187
##########   Ligand Source File: /raidb/db2/rgc/tcams/tcams-0000170.db2.gz
##########           GlobalRank: 406
##########                 Rank:                    1
##########               Setnum:                  212
##########             Matchnum:                 2663
##########                Cloud:                    1
##########        Electrostatic:           -28.244141
##########        Van der Waals:           -32.633354
##########  Ligand Polar Desolv:             1.396222
########## Ligand Apolar Desolv:            -4.651012
##########      Internal Energy:             0.000000
##########      Receptor Energy: 0.0
########## Receptor Desolvation:             0.000000
########## Receptor Hydrophobic:             0.000000
##########         Total Energy: -64.13
##########        Ligand Charge:             1.000000
##########            Arbitrary:    +999.9990
##########     heavy atom count:   43
##########           pose count:    1
##########        Ligand Energy:             0.000000
# num electro vdwattr vdwrepu polsolv apolsol rdesolv rhydroe totalscore fullpol fullapo
#   1   -1.72   -2.04    1.73   -2.53    0.09    0.00    0.00      -4.46  -10.53    0.36
#   2   -4.07   -0.85    0.19    2.35   -0.10    0.00    0.00      -2.47   11.90   -0.50
#   3   10.56   -0.66    0.03   -3.47    0.53    0.00    0.00       6.99  -15.20    2.33
#   4   -2.67   -0.61    0.04    1.04   -0.13    0.00    0.00      -2.33    3.01   -0.38
#   5    2.51   -0.93    0.09   -0.36   -0.11    0.00    0.00       1.20   -1.20   -0.37
#   6    0.37   -0.81    0.12   -0.17   -0.10    0.00    0.00      -0.59   -0.70   -0.40
#   7    0.29   -0.49    0.02   -0.29   -0.09    0.00    0.00      -0.55   -1.45   -0.44
#   8    0.18   -0.36    0.01   -0.23   -0.07    0.00    0.00      -0.46   -1.67   -0.47
#   9    0.20   -0.52    0.03   -0.30   -0.10    0.00    0.00      -0.68   -1.40   -0.47
#  10    0.54   -1.05    0.17   -0.40   -0.14    0.00    0.00      -0.89   -1.30   -0.46
#  11    0.77   -1.22    0.38   -0.26   -0.12    0.00    0.00      -0.45   -0.85   -0.40
#  12    1.68   -1.47    0.36   -0.46   -0.18    0.00    0.00      -0.08   -1.17   -0.46
#  13    3.10   -1.48    0.19   -0.60   -0.21    0.00    0.00       0.99   -1.36   -0.47
#  14    2.14   -1.55    0.33   -0.51   -0.17    0.00    0.00       0.24   -1.32   -0.45
#  15   -1.93   -0.41    0.02    0.86   -0.04    0.00    0.00      -1.50    4.05   -0.20
#  16    5.59   -0.41    0.02   -2.02    0.02    0.00    0.00       3.20  -10.57    0.10
#  17   -2.76   -0.01    0.00    1.21    0.05    0.00    0.00      -1.50   11.42    0.49
#  18   -0.01   -0.53    0.07    0.13   -0.09    0.00    0.00      -0.43    0.56   -0.38
#  19   -0.37   -0.31    0.03    0.09   -0.07    0.00    0.00      -0.63    0.55   -0.39
#  20    7.62   -0.31    0.01   -1.51    0.28    0.00    0.00       6.08  -11.49    2.15
#  21   -0.32   -0.16    0.00    0.05   -0.04    0.00    0.00      -0.47    0.55   -0.38
#  22    0.13   -0.30    0.02    0.04   -0.06    0.00    0.00      -0.17    0.27   -0.38
#  23   -1.55   -0.11    0.00    0.21   -0.01    0.00    0.00      -1.46    3.26   -0.18
#  24    0.68   -0.25    0.01   -0.11   -0.03    0.00    0.00       0.31   -1.08   -0.26
#  25    0.25   -0.36    0.05   -0.13   -0.04    0.00    0.00      -0.23   -1.18   -0.37
#  26    0.35   -1.20    0.95   -0.28   -0.08    0.00    0.00      -0.26   -1.72   -0.47
#  27    0.39   -1.29    0.61   -0.33   -0.11    0.00    0.00      -0.74   -1.48   -0.47
#  28    0.48   -0.82    0.08   -0.34   -0.11    0.00    0.00      -0.72   -1.43   -0.47
#  29    1.17   -0.48    0.02   -0.27   -0.08    0.00    0.00       0.35   -1.51   -0.45
#  30    0.77   -0.22    0.00   -0.09   -0.02    0.00    0.00       0.45   -1.04   -0.26
#  31    0.31   -0.14    0.00   -0.06   -0.02    0.00    0.00       0.08   -1.15   -0.38
#  32    0.19   -0.16    0.00   -0.10   -0.03    0.00    0.00      -0.09   -1.69   -0.47
#  33    0.33   -0.28    0.01   -0.15   -0.05    0.00    0.00      -0.14   -1.43   -0.47
#  34    1.04   -0.54    0.03   -0.28   -0.09    0.00    0.00       0.16   -1.40   -0.47
#  35    1.44   -0.49    0.03   -0.26   -0.08    0.00    0.00       0.64   -1.49   -0.45
#  36    0.87   -0.81    0.06   -0.15   -0.05    0.00    0.00      -0.08   -0.54   -0.20
#  37    2.38   -1.09    0.09   -0.88   -0.18    0.00    0.00       0.32   -2.39   -0.50
#  38    2.36   -1.31    0.14   -0.99   -0.17    0.00    0.00       0.03   -2.54   -0.44
#  39    0.97   -2.15    0.55   -0.53   -0.24    0.00    0.00      -1.40   -1.06   -0.47
#  40    2.22   -2.03    0.29   -1.04   -0.26    0.00    0.00      -0.82   -1.86   -0.47
#  41    0.81   -2.21    1.11   -0.58   -0.23    0.00    0.00      -1.11   -1.19   -0.47
#  42    0.79   -1.89    0.53   -0.64   -0.19    0.00    0.00      -1.40   -1.64   -0.48
#  43   -0.68   -1.24    0.12    0.19   -0.12    0.00    0.00      -1.74    0.53   -0.35
#  44    1.10   -1.16    0.34   -1.08    0.08    0.00    0.00      -0.71   -3.61    0.28
#  45   -8.83   -0.01    0.00    1.15    0.06    0.00    0.00      -7.63   10.88    0.56
#  46   -0.81   -0.21    0.02    0.38   -0.05    0.00    0.00      -0.67    1.68   -0.24
#  47   -2.10   -0.28    0.05    0.35   -0.09    0.00    0.00      -2.07    1.06   -0.27
#  48   -0.23   -0.10    0.00    0.36   -0.02    0.00    0.00       0.01    3.50   -0.23
#  49   -0.17   -0.04    0.00    0.10   -0.01    0.00    0.00      -0.12    2.56   -0.28
#  50   -0.18   -0.07    0.00    0.11   -0.02    0.00    0.00      -0.16    1.45   -0.28
#  51   -0.57   -0.42    0.30    0.32   -0.09    0.00    0.00      -0.45    1.03   -0.28
#  52   -2.84   -0.35    0.09    0.33   -0.08    0.00    0.00      -2.86    1.09   -0.28
#  53   -3.21   -0.35    0.04    0.53   -0.10    0.00    0.00      -3.10    1.43   -0.28
#  54   -4.12   -0.47    0.19    0.68   -0.09    0.00    0.00      -3.82    2.02   -0.28
#  55   -5.37   -0.18    0.03    1.39   -0.04    0.00    0.00      -4.17   10.22   -0.28
#  56   -4.40   -0.32    0.10    1.63   -0.07    0.00    0.00      -3.06    6.77   -0.28
#  57   -2.04   -0.21    0.04    0.58   -0.04    0.00    0.00      -1.67    3.53   -0.22
#  58   -1.68   -0.16    0.03    0.29   -0.03    0.00    0.00      -1.54    2.22   -0.21
#  59   -0.51   -0.06    0.00    0.06   -0.01    0.00    0.00      -0.52    1.25   -0.28
#  60   -1.27   -0.04    0.00    0.10   -0.01    0.00    0.00      -1.23    2.33   -0.22
#  61   -0.37   -0.03    0.00    0.04   -0.01    0.00    0.00      -0.37    1.17   -0.28
#  62   -1.78   -0.06    0.00    0.22   -0.01    0.00    0.00      -1.64    3.88   -0.22
#  63   -4.34   -0.23    0.06    1.17   -0.05    0.00    0.00      -3.39    7.04   -0.28
#  64   -0.36   -0.02    0.00    0.03   -0.01    0.00    0.00      -0.36    1.00   -0.27
#  65   -0.26   -0.03    0.00    0.15   -0.01    0.00    0.00      -0.15    3.50   -0.25
#  66   -0.31   -0.29    0.21    0.29   -0.04    0.00    0.00      -0.13    2.00   -0.28
#  67   -0.45   -0.32    0.11    0.19   -0.05    0.00    0.00      -0.52    0.98   -0.28
#  68   -0.59   -0.31    0.08    0.18   -0.06    0.00    0.00      -0.69    0.83   -0.28
#  69   -2.40   -0.14    0.01    0.20   -0.04    0.00    0.00      -2.37    1.34   -0.28
#  70   -0.20   -0.02    0.00    0.08   -0.01    0.00    0.00      -0.14    3.46   -0.25
#  71   -0.14   -0.02    0.00    0.05   -0.01    0.00    0.00      -0.12    1.90   -0.28
#  72   -0.19   -0.05    0.00    0.04   -0.01    0.00    0.00      -0.22    0.93   -0.28
#  73   -1.36   -0.17    0.01    0.17   -0.06    0.00    0.00      -1.41    0.82   -0.28
#  74   -2.48   -0.16    0.01    0.23   -0.05    0.00    0.00      -2.44    1.35   -0.28
#  75   -5.29   -0.27    0.03    2.06   -0.09    0.00    0.00      -3.57    6.11   -0.28
#  76   -2.57   -0.73    0.57    1.08   -0.13    0.00    0.00      -1.78    2.33   -0.28
#  77   -3.16   -0.56    0.10    0.90   -0.16    0.00    0.00      -2.88    1.61   -0.28
#  78   -1.76   -0.63    0.70    0.62   -0.10    0.00    0.00      -1.17    1.66   -0.28
#  79   -0.36   -0.47    0.14    0.56   -0.09    0.00    0.00      -0.22    1.67   -0.28

@<TRIPOS>MOLECULE
          T526652        11
   79    85     0     0     0



@<TRIPOS>ATOM
      1 O1          2.9826    -8.7687    93.4972 O.2        1          -0.5086
      2 C1          3.3600    -7.6587    93.8075 C.2        1           0.5042
      3 N1          2.5016    -6.7901    94.3780 N.am       1          -0.6918
      4 C2          1.1129    -7.1869    94.6233 C.3        1           0.1623
      5 C3          0.1869    -6.2646    93.8729 C.ar       1          -0.1212
      6 C4         -0.2099    -6.5761    92.5611 C.ar       1          -0.0332
      7 C5          0.2399    -7.7432    91.9203 C.ar       1          -0.1238
      8 C6         -0.1657    -8.0125    90.6494 C.ar       1          -0.1004
      9 C7         -1.0224    -7.1474    89.9710 C.ar       1          -0.1175
     10 C8         -1.4779    -6.0081    90.5597 C.ar       1          -0.0948
     11 C9         -1.0811    -5.6966    91.8715 C.ar       1          -0.0567
     12 C10        -1.5318    -4.5301    92.5128 C.ar       1          -0.0808
     13 C11        -1.1270    -4.2613    93.7840 C.ar       1          -0.1245
     14 C12        -0.2736    -5.1287    94.4639 C.ar       1          -0.0765
     15 C13         4.7901    -7.2526    93.5606 C.3        1           0.1079
     16 N2          5.3059    -7.9668    92.3852 N.4        1          -0.3749
     17 H1          4.9724    -8.9190    92.3973 H          1           0.4335
     18 C14         6.7745    -7.9623    92.4154 C.3        1           0.0005
     19 C15         7.3122    -8.7224    91.2010 C.3        1           0.0282
     20 N3          6.8285    -8.0799    89.9710 N.3        1          -0.5292
     21 C16         5.3593    -8.0547    89.9382 C.3        1           0.0282
     22 C17         4.8379    -7.2999    91.1630 C.3        1          -0.0073
     23 C18         7.3701    -8.7478    88.7800 C.3        1           0.1782
     24 C19         6.8534    -8.0629    87.5411 C.ar       1          -0.0930
     25 C20         6.6710    -8.7856    86.3769 C.ar       1          -0.0969
     26 C21         6.1969    -8.1573    85.2405 C.ar       1          -0.1215
     27 C22         5.9049    -6.8065    85.2684 C.ar       1          -0.1097
     28 C23         6.0864    -6.0839    86.4328 C.ar       1          -0.1149
     29 C24         6.5564    -6.7132    87.5704 C.ar       1          -0.1086
     30 C25         8.8752    -8.6745    88.8038 C.ar       1          -0.0921
     31 C26         9.6253    -9.6736    88.2120 C.ar       1          -0.0953
     32 C27        11.0058    -9.6065    88.2337 C.ar       1          -0.1218
     33 C28        11.6363    -8.5398    88.8467 C.ar       1          -0.1100
     34 C29        10.8863    -7.5402    89.4377 C.ar       1          -0.1153
     35 C30         9.5057    -7.6053    89.4122 C.ar       1          -0.1094
     36 C31         5.6258    -7.5992    94.7658 C.2        1          -0.0570
     37 C32         6.3170    -6.7164    95.4996 C.2        1          -0.1076
     38 C33         6.9734    -7.4906    96.5599 C.ar       1          -0.1461
     39 C34         7.8154    -7.1686    97.6232 C.ar       1          -0.0558
     40 C35         8.2665    -8.1568    98.4539 C.ar       1          -0.1264
     41 C36         7.8916    -9.4761    98.2444 C.ar       1          -0.0658
     42 C37         7.0597    -9.8134    97.1983 C.ar       1          -0.1117
     43 C38         6.5897    -8.8245    96.3428 C.ar       1           0.0762
     44 O2          5.7813    -8.8383    95.2641 O.3        1          -0.1921
     45 H2          2.8035    -5.9024    94.6262 H          1           0.4115
     46 H3          0.9618    -8.2108    94.2812 H          1           0.0916
     47 H4          0.9006    -7.1254    95.6906 H          1           0.0901
     48 H5          0.9043    -8.4226    92.4334 H          1           0.1217
     49 H6          0.1817    -8.9098    90.1592 H          1           0.1250
     50 H7         -1.3293    -7.3847    88.9631 H          1           0.1281
     51 H8         -2.1408    -5.3466    90.0215 H          1           0.1323
     52 H9         -2.1957    -3.8503    91.9994 H          1           0.1338
     53 H10        -1.4744    -3.3640    94.2744 H          1           0.1308
     54 H11         0.0293    -4.8938    95.4737 H          1           0.1267
     55 H12         4.8371    -6.1783    93.3826 H          1           0.1797
     56 H13         7.1352    -6.9341    92.3895 H          1           0.1424
     57 H14         7.1205    -8.4458    93.3290 H          1           0.1352
     58 H15         8.4020    -8.7065    91.2154 H          1           0.1308
     59 H16         6.9628    -9.7544    91.2340 H          1           0.0642
     60 H17         5.0243    -7.5516    89.0311 H          1           0.1317
     61 H18         4.9777    -9.0757    89.9503 H          1           0.0656
     62 H19         3.7480    -7.2921    91.1480 H          1           0.1384
     63 H20         5.2089    -6.2751    91.1435 H          1           0.1416
     64 H21         7.0573    -9.7920    88.7752 H          1           0.0684
     65 H22         6.8992    -9.8410    86.3552 H          1           0.1277
     66 H23         6.0552    -8.7218    84.3307 H          1           0.1243
     67 H24         5.5353    -6.3155    84.3803 H          1           0.1252
     68 H25         5.8586    -5.0285    86.4545 H          1           0.1262
     69 H26         6.6947    -6.1494    88.4813 H          1           0.1209
     70 H27         9.1326   -10.5070    87.7331 H          1           0.1276
     71 H28        11.5917   -10.3875    87.7721 H          1           0.1241
     72 H29        12.7149    -8.4877    88.8644 H          1           0.1250
     73 H30        11.3788    -6.7072    89.9169 H          1           0.1259
     74 H31         8.9196    -6.8225    89.8706 H          1           0.1206
     75 H32         6.3787    -5.6498    95.3425 H          1           0.1723
     76 H33         8.1107    -6.1432    97.7899 H          1           0.1370
     77 H34         8.9190    -7.9086    99.2779 H          1           0.1409
     78 H35         8.2556   -10.2468    98.9076 H          1           0.1463
     79 H36         6.7742   -10.8434    97.0440 H          1           0.1395
@<TRIPOS>BOND
     1    1    2 2
     2    2    3 am
     3    2   15 1
     4    3    4 1
     5    3   45 1
     6    4    5 1
     7    4   46 1
     8    4   47 1
     9    5   14 ar
    10    5    6 ar
    11    6   11 ar
    12    6    7 ar
    13    7    8 ar
    14    7   48 1
    15    8    9 ar
    16    8   49 1
    17    9   10 ar
    18    9   50 1
    19   10   11 ar
    20   10   51 1
    21   11   12 ar
    22   12   13 ar
    23   12   52 1
    24   13   14 ar
    25   13   53 1
    26   14   54 1
    27   15   16 1
    28   15   36 1
    29   15   55 1
    30   16   17 1
    31   16   22 1
    32   16   18 1
    33   18   19 1
    34   18   56 1
    35   18   57 1
    36   19   20 1
    37   19   58 1
    38   19   59 1
    39   20   21 1
    40   20   23 1
    41   21   22 1
    42   21   60 1
    43   21   61 1
    44   22   62 1
    45   22   63 1
    46   23   24 1
    47   23   30 1
    48   23   64 1
    49   24   29 ar
    50   24   25 ar
    51   25   26 ar
    52   25   65 1
    53   26   27 ar
    54   26   66 1
    55   27   28 ar
    56   27   67 1
    57   28   29 ar
    58   28   68 1
    59   29   69 1
    60   30   35 ar
    61   30   31 ar
    62   31   32 ar
    63   31   70 1
    64   32   33 ar
    65   32   71 1
    66   33   34 ar
    67   33   72 1
    68   34   35 ar
    69   34   73 1
    70   35   74 1
    71   36   44 1
    72   36   37 2
    73   37   38 1
    74   37   75 1
    75   38   43 ar
    76   38   39 ar
    77   39   40 ar
    78   39   76 1
    79   40   41 ar
    80   40   77 1
    81   41   42 ar
    82   41   78 1
    83   42   43 ar
    84   42   79 1
    85   43   44 1
##########                 Name:              T524720
##########          Protonation:                   99
##########               SMILES:   C[C@H](Cc1ccc(cc1)OCC#C)[NH2+]C[C@H](c2cccc(c2)C(F)(F)F)O
##########            Long Name:   romethyl)phenyl]ethyl]-[(1R)-1-methyl-2-(4-prop-2-ynoxyphenyl)ethyl]ammonium
##########          FlexRecCode: 1
##########               Number:                   79
##########   Ligand Source File: /raidb/db2/rgc/tcams/tcams-0000004.db2.gz
##########           GlobalRank: 409
##########                 Rank:                    1
##########               Setnum:                   96
##########             Matchnum:                  177
##########                Cloud:                    1
##########        Electrostatic:           -49.463070
##########        Van der Waals:           -20.412018
##########  Ligand Polar Desolv:             8.765778
########## Ligand Apolar Desolv:            -3.007969
##########      Internal Energy:             0.000000
##########      Receptor Energy: 0.0
########## Receptor Desolvation:             0.000000
########## Receptor Hydrophobic:             0.000000
##########         Total Energy: -64.12
##########        Ligand Charge:             1.000000
##########            Arbitrary:    +999.9990
##########     heavy atom count:   27
##########           pose count:    1
##########        Ligand Energy:             0.000000
# num electro vdwattr vdwrepu polsolv apolsol rdesolv rhydroe totalscore fullpol fullapo
#   1    6.57   -1.61    0.39   -2.88   -0.09    0.00    0.00       2.37   -5.76   -0.18
#   2   -0.95   -0.82    0.11    0.85   -0.09    0.00    0.00      -0.90    2.30   -0.24
#   3    1.83   -0.49    0.02   -0.76   -0.06    0.00    0.00       0.53   -2.67   -0.21
#   4    2.49   -0.93    0.08   -0.84   -0.10    0.00    0.00       0.69   -2.66   -0.33
#   5    0.96   -1.46    0.19   -0.54   -0.18    0.00    0.00      -1.03   -1.33   -0.45
#   6    1.82   -1.62    0.22   -1.20   -0.21    0.00    0.00      -0.98   -2.60   -0.46
#   7   -1.57   -1.29    0.12    0.26   -0.12    0.00    0.00      -2.59    0.69   -0.31
#   8    3.30   -1.16    0.11   -1.20    0.36    0.00    0.00       1.42   -2.91    0.88
#   9   -2.89   -1.23    0.17    0.90   -0.06    0.00    0.00      -3.10    1.66   -0.11
#  10    3.45   -2.29    0.64   -0.88   -0.39    0.00    0.00       0.53   -1.66   -0.73
#  11    1.66   -3.24    2.64   -0.67   -0.31    0.00    0.00       0.07   -1.22   -0.57
#  12    1.62   -1.15    0.16   -1.15   -0.13    0.00    0.00      -0.65   -3.67   -0.42
#  13    0.87   -1.07    0.26   -0.46   -0.10    0.00    0.00      -0.49   -1.69   -0.38
#  14   21.15   -2.34    4.26   -5.13    0.19    0.00    0.00      18.12  -17.05    0.62
#  15  -29.63   -0.44    0.76    5.73    0.19    0.00    0.00     -23.40   17.21    0.56
#  16  -14.08   -0.02    0.00    2.68    0.07    0.00    0.00     -11.34   15.02    0.39
#  17    1.51   -0.88    0.30   -0.24   -0.09    0.00    0.00       0.60   -0.94   -0.36
#  18   -4.07   -0.86    0.32    0.98   -0.03    0.00    0.00      -3.66    4.10   -0.14
#  19    9.87   -0.37    0.02   -2.57    0.28    0.00    0.00       7.22  -15.22    1.64
#  20    2.55   -0.77    0.08   -0.53   -0.08    0.00    0.00       1.24   -2.29   -0.35
#  21    1.11   -1.66    0.63   -0.38   -0.13    0.00    0.00      -0.43   -1.30   -0.44
#  22    0.40   -1.79    0.97   -0.61   -0.13    0.00    0.00      -1.16   -2.17   -0.47
#  23    0.13   -0.86    0.18   -0.31   -0.10    0.00    0.00      -0.95   -1.42   -0.44
#  24    0.40   -0.36    0.02   -0.38   -0.05    0.00    0.00      -0.38   -2.61   -0.37
#  25    0.38   -0.35    0.01   -0.18   -0.07    0.00    0.00      -0.20   -1.15   -0.44
#  26   -0.71   -0.14    0.00    0.33   -0.01    0.00    0.00      -0.52    3.82   -0.07
#  27    0.22   -0.16    0.00   -0.15   -0.06    0.00    0.00      -0.14   -1.11   -0.44
#  28    0.19   -0.05    0.00   -0.07   -0.02    0.00    0.00       0.05   -1.50   -0.48
#  29    0.24   -0.12    0.00   -0.14   -0.05    0.00    0.00      -0.07   -1.35   -0.48
#  30   -4.81   -0.69    0.19    1.00   -0.15    0.00    0.00      -4.46    1.86   -0.28
#  31   -2.63   -0.82    0.46    1.29   -0.12    0.00    0.00      -1.82    2.97   -0.28
#  32   -2.60   -0.42    0.12    1.12   -0.08    0.00    0.00      -1.86    2.97   -0.21
#  33   -4.53   -0.26    0.02    1.35   -0.07    0.00    0.00      -3.49    5.12   -0.28
#  34   -2.04   -0.17    0.00    0.71   -0.05    0.00    0.00      -1.54    4.19   -0.28
#  35   -1.70   -0.11    0.00    0.28   -0.03    0.00    0.00      -1.55    2.85   -0.28
#  36   -2.65   -0.47    0.15    1.23   -0.11    0.00    0.00      -1.86    3.19   -0.28
#  37   -2.03   -0.41    0.06    0.28   -0.12    0.00    0.00      -2.23    0.65   -0.28
#  38   -1.65   -0.43    0.09    0.76   -0.11    0.00    0.00      -1.34    1.80   -0.26
#  39   -1.72   -0.57    0.24    0.60   -0.12    0.00    0.00      -1.57    1.30   -0.26
#  40   -2.52   -0.93    1.09    1.36   -0.15    0.00    0.00      -1.14    2.52   -0.27
#  41   -0.91   -0.19    0.02    0.45   -0.04    0.00    0.00      -0.67    2.59   -0.22
#  42   -0.99   -0.17    0.03    0.79   -0.04    0.00    0.00      -0.38    5.95   -0.28
#  43   -2.59   -0.09    0.00    0.50   -0.02    0.00    0.00      -2.19    5.86   -0.28
#  44   -5.08   -0.38    0.11    1.59   -0.06    0.00    0.00      -3.82    5.87   -0.22
#  45   -5.96   -0.88    1.47    1.29   -0.07    0.00    0.00      -4.15    4.88   -0.28
#  46   -7.37   -0.01    0.00    1.29    0.11    0.00    0.00      -5.98   11.78    1.01
#  47   -4.67   -0.60    0.36    1.59   -0.07    0.00    0.00      -3.39    5.24   -0.24
#  48   -0.61   -0.55    0.39    0.57   -0.07    0.00    0.00      -0.27    2.33   -0.28
#  49   -0.30   -0.17    0.02    0.13   -0.04    0.00    0.00      -0.36    0.85   -0.25
#  50   -0.96   -0.04    0.00    0.14   -0.01    0.00    0.00      -0.87    3.46   -0.28

@<TRIPOS>MOLECULE
          T524720        99
   50    51     0     0     0



@<TRIPOS>ATOM
      1 C1          5.0260    -4.2895    95.3177 C.3        1          -0.1849
      2 C2          4.2968    -5.1392    94.2749 C.3        1           0.0289
      3 C3          3.6897    -6.3690    94.9531 C.3        1          -0.0930
      4 C4          4.7861    -7.1848    95.5882 C.ar       1          -0.1702
      5 C5          5.1628    -6.9363    96.8951 C.ar       1          -0.0619
      6 C6          6.1675    -7.6828    97.4795 C.ar       1          -0.1399
      7 C7          6.7985    -8.6828    96.7540 C.ar       1           0.1512
      8 O1          7.7870    -9.4189    97.3269 O.3        1          -0.3046
      9 C8          8.5752    -8.7767    98.3310 C.3        1           0.1781
     10 C9          9.9330    -9.3451    98.3269 C.1        1          -0.2262
     11 C10        11.0159    -9.7983    98.3235 C.1        1          -0.1275
     12 C11         6.4185    -8.9306    95.4430 C.ar       1          -0.2004
     13 C12         5.4099    -8.1845    94.8647 C.ar       1          -0.0943
     14 N1          5.2484    -5.5694    93.2417 N.4        1          -0.5058
     15 H1          5.8776    -4.8106    93.0270 H          1           0.4253
     16 H2          5.7772    -6.3595    93.5797 H          1           0.4302
     17 C13         4.5137    -5.9545    92.0293 C.3        1          -0.0479
     18 C14         5.5048    -6.4027    90.9533 C.3        1           0.1362
     19 O2          5.9104    -7.7487    91.2101 O.3        1          -0.5434
     20 C15         4.8459    -6.3260    89.6001 C.ar       1          -0.1420
     21 C16         5.3760    -5.5097    88.6182 C.ar       1          -0.0758
     22 C17         4.7717    -5.4394    87.3773 C.ar       1          -0.1082
     23 C18         3.6374    -6.1856    87.1175 C.ar       1          -0.0523
     24 C19         3.1078    -7.0026    88.0988 C.ar       1          -0.1723
     25 C20         3.7148    -7.0761    89.3388 C.ar       1          -0.0513
     26 C21         1.8710    -7.8158    87.8159 C.3        1           0.5065
     27 F1          1.4468    -7.5783    86.5040 F          1          -0.1708
     28 F2          2.1607    -9.1753    87.9733 F          1          -0.1741
     29 F3          0.8574    -7.4486    88.7074 F          1          -0.1717
     30 H3          5.4584    -3.4133    94.8346 H          1           0.1091
     31 H4          4.3201    -3.9704    96.0843 H          1           0.0845
     32 H5          5.8190    -4.8796    95.7771 H          1           0.0823
     33 H6          3.5038    -4.5490    93.8155 H          1           0.1404
     34 H7          2.9838    -6.0498    95.7197 H          1           0.0971
     35 H8          3.1703    -6.9743    94.2102 H          1           0.1213
     36 H9          4.6712    -6.1577    97.4594 H          1           0.1371
     37 H10         6.4617    -7.4877    98.5002 H          1           0.1409
     38 H11         8.6279    -7.7081    98.1231 H          1           0.0894
     39 H12         8.1181    -8.9347    99.3079 H          1           0.0904
     40 H13        11.9846   -10.2037    98.3207 H          1           0.2287
     41 H14         6.9085    -9.7084    94.8760 H          1           0.1383
     42 H15         5.1108    -8.3797    93.8455 H          1           0.1252
     43 H16         3.8341    -6.7745    92.2612 H          1           0.1381
     44 H17         3.9424    -5.1011    91.6642 H          1           0.1480
     45 H18         6.3782    -5.7506    90.9695 H          1           0.1339
     46 H19         6.3431    -7.8725    92.0659 H          1           0.3891
     47 H20         6.2622    -4.9267    88.8212 H          1           0.1334
     48 H21         5.1855    -4.8011    86.6105 H          1           0.1462
     49 H22         3.1645    -6.1304    86.1481 H          1           0.1489
     50 H23         3.3033    -7.7172    90.1044 H          1           0.1399
@<TRIPOS>BOND
     1    1    2 1
     2    1   30 1
     3    1   31 1
     4    1   32 1
     5    2    3 1
     6    2   14 1
     7    2   33 1
     8    3    4 1
     9    3   34 1
    10    3   35 1
    11    4   13 ar
    12    4    5 ar
    13    5    6 ar
    14    5   36 1
    15    6    7 ar
    16    6   37 1
    17    7    8 1
    18    7   12 ar
    19    8    9 1
    20    9   10 1
    21    9   38 1
    22    9   39 1
    23   10   11 3
    24   11   40 1
    25   12   13 ar
    26   12   41 1
    27   13   42 1
    28   14   15 1
    29   14   16 1
    30   14   17 1
    31   17   18 1
    32   17   43 1
    33   17   44 1
    34   18   19 1
    35   18   20 1
    36   18   45 1
    37   19   46 1
    38   20   25 ar
    39   20   21 ar
    40   21   22 ar
    41   21   47 1
    42   22   23 ar
    43   22   48 1
    44   23   24 ar
    45   23   49 1
    46   24   25 ar
    47   24   26 1
    48   25   50 1
    49   26   27 1
    50   26   28 1
    51   26   29 1
##########                 Name:              T531069
##########          Protonation:                   94
##########               SMILES:   c1cc(cc(c1)NC(=O)N2CCC[NH+](CC2)CCCCCNC(=O)/C=C\c3ccc(c(c3)Cl)Cl)C(F)(F)F
##########            Long Name:   amino]pentyl]-N-[3-(trifluoromethyl)phenyl]-1,4-diazepan-4-ium-1-carboxamide
##########          FlexRecCode: 1
##########               Number:                  132
##########   Ligand Source File: /raidb/db2/rgc/tcams/tcams-0000777.db2.gz
##########           GlobalRank: 409
##########                 Rank:                    1
##########               Setnum:                  375
##########             Matchnum:                  710
##########                Cloud:                    1
##########        Electrostatic:           -40.475227
##########        Van der Waals:           -30.120647
##########  Ligand Polar Desolv:            10.750919
########## Ligand Apolar Desolv:            -4.271674
##########      Internal Energy:             0.000000
##########      Receptor Energy: 0.0
########## Receptor Desolvation:             0.000000
########## Receptor Hydrophobic:             0.000000
##########         Total Energy: -64.12
##########        Ligand Charge:             1.000000
##########            Arbitrary:    +999.9990
##########     heavy atom count:   38
##########           pose count:    1
##########        Ligand Energy:             0.000000
# num electro vdwattr vdwrepu polsolv apolsol rdesolv rhydroe totalscore fullpol fullapo
#   1    1.05   -0.26    0.01   -0.13   -0.08    0.00    0.00       0.59   -0.68   -0.44
#   2   -2.43   -0.37    0.04    0.46   -0.01    0.00    0.00      -2.32    2.48   -0.07
#   3    1.02   -0.15    0.00   -0.11   -0.06    0.00    0.00       0.71   -0.89   -0.48
#   4    0.02   -1.23    1.55   -0.17   -0.10    0.00    0.00       0.07   -0.80   -0.47
#   5    1.08   -0.82    0.08   -0.35   -0.10    0.00    0.00      -0.11   -1.32   -0.37
#   6    0.63   -1.08    0.23   -0.28   -0.12    0.00    0.00      -0.61   -1.06   -0.44
#   7   -1.25   -1.48    0.63    0.60   -0.21    0.00    0.00      -1.70    1.94   -0.67
#   8    7.39   -1.51    0.35   -3.56    0.56    0.00    0.00       3.23  -10.62    1.67
#   9   -6.86   -1.15    0.10    3.86   -0.70    0.00    0.00      -4.75   11.20   -2.03
#  10    0.75   -2.21    1.44   -2.47    0.11    0.00    0.00      -2.39   -7.18    0.32
#  11   10.16   -1.11    0.07   -5.31    0.56    0.00    0.00       4.36  -13.76    1.44
#  12   -2.18   -1.47    0.46    0.88   -0.21    0.00    0.00      -2.52    1.98   -0.46
#  13    5.69   -1.85    0.84   -2.11   -0.12    0.00    0.00       2.45   -4.39   -0.24
#  14    0.38   -1.55    0.55   -0.13   -0.18    0.00    0.00      -0.92   -0.25   -0.36
#  15   10.72   -0.88    0.08   -4.09    0.06    0.00    0.00       5.90  -11.46    0.18
#  16  -11.42   -0.01    0.00    2.34    0.06    0.00    0.00      -9.03   16.94    0.44
#  17    0.66   -0.83    0.08   -0.03   -0.13    0.00    0.00      -0.26   -0.08   -0.35
#  18    3.13   -0.44    0.02   -1.03   -0.05    0.00    0.00       1.62   -4.12   -0.20
#  19    2.09   -0.76    0.15   -0.85   -0.06    0.00    0.00       0.58   -2.97   -0.22
#  20    1.39   -0.42    0.03   -0.51   -0.05    0.00    0.00       0.44   -2.43   -0.22
#  21   -1.32   -0.47    0.04    0.39   -0.11    0.00    0.00      -1.47    1.56   -0.42
#  22    2.09   -1.10    0.27   -2.62    0.61    0.00    0.00      -0.74   -9.95    2.33
#  23   -0.99   -0.64    0.05    1.23   -0.14    0.00    0.00      -0.48    5.05   -0.58
#  24    0.58   -0.53    0.03   -0.66    0.07    0.00    0.00      -0.51   -2.91    0.29
#  25    0.34   -0.61    0.06   -0.48   -0.10    0.00    0.00      -0.79   -2.23   -0.45
#  26    0.02   -0.47    0.05   -0.10   -0.07    0.00    0.00      -0.57   -0.59   -0.44
#  27    0.09   -0.40    0.02   -0.04   -0.05    0.00    0.00      -0.38   -0.26   -0.31
#  28    0.05   -0.94    0.17   -0.04   -0.09    0.00    0.00      -0.85   -0.15   -0.31
#  29    0.11   -1.25    0.34   -0.16   -0.16    0.00    0.00      -1.11   -0.47   -0.46
#  30    0.02   -0.80    0.06   -0.05   -0.09    0.00    0.00      -0.86   -0.15   -0.30
#  31    0.02   -4.14    1.47   -0.05   -0.45    0.00    0.00      -3.14   -0.10   -0.95
#  32    0.05   -0.39    0.01   -0.02   -0.05    0.00    0.00      -0.40   -0.15   -0.30
#  33    0.07   -0.97    0.09   -0.02   -0.17    0.00    0.00      -1.00   -0.10   -0.95
#  34    0.10   -0.23    0.00   -0.04   -0.04    0.00    0.00      -0.21   -0.45   -0.45
#  35    0.90   -0.69    0.04   -0.13   -0.14    0.00    0.00      -0.02   -0.36   -0.39
#  36   -1.80   -1.01    0.14    0.97   -0.18    0.00    0.00      -1.86    2.33   -0.42
#  37    0.82   -1.39    0.31   -0.38   -0.16    0.00    0.00      -0.79   -1.00   -0.41
#  38    1.00   -1.64    0.32   -0.37   -0.18    0.00    0.00      -0.88   -0.94   -0.47
#  39    0.84   -1.29    0.24   -0.29   -0.14    0.00    0.00      -0.64   -0.88   -0.44
#  40   -0.90   -0.17    0.02    0.32   -0.04    0.00    0.00      -0.77    2.10   -0.28
#  41   -5.50   -0.03    0.00    2.09    0.10    0.00    0.00      -3.34    8.68    0.41
#  42   -1.98   -0.62    0.49    0.98   -0.09    0.00    0.00      -1.22    2.21   -0.20
#  43   -2.02   -1.17    1.66    0.77   -0.11    0.00    0.00      -0.87    1.97   -0.28
#  44   -5.31   -0.95    0.55    2.58   -0.17    0.00    0.00      -3.30    4.35   -0.28
#  45   -3.55   -0.59    0.40    1.59   -0.08    0.00    0.00      -2.24    4.80   -0.25
#  46   -4.07   -0.84    0.84    1.35   -0.11    0.00    0.00      -2.81    2.99   -0.24
#  47   -7.31   -1.02    1.93    3.01   -0.11    0.00    0.00      -3.51    6.18   -0.23
#  48   -4.03   -0.32    0.04    1.47   -0.08    0.00    0.00      -2.92    4.85   -0.26
#  49   -5.69   -0.50    0.18    1.48   -0.10    0.00    0.00      -4.63    4.12   -0.27
#  50   -1.72   -0.10    0.00    0.40   -0.02    0.00    0.00      -1.44    3.84   -0.23
#  51   -1.50   -0.10    0.00    0.36   -0.03    0.00    0.00      -1.27    3.77   -0.28
#  52   -1.68   -0.22    0.02    0.30   -0.06    0.00    0.00      -1.65    1.29   -0.28
#  53   -1.42   -0.67    0.65    0.41   -0.08    0.00    0.00      -1.11    1.40   -0.28
#  54   -0.67   -0.16    0.02    0.33   -0.04    0.00    0.00      -0.53    2.19   -0.28
#  55   -0.51   -0.08    0.00    0.16   -0.02    0.00    0.00      -0.45    1.98   -0.28
#  56   -0.70   -0.11    0.00    0.03   -0.03    0.00    0.00      -0.82    0.22   -0.28
#  57   -1.52   -0.22    0.03    0.09   -0.06    0.00    0.00      -1.67    0.42   -0.28
#  58   -1.48   -0.05    0.00    1.95    0.14    0.00    0.00       0.57    7.85    0.56
#  59   -0.18   -0.17    0.04    0.61   -0.05    0.00    0.00       0.25    3.52   -0.28
#  60   -0.20   -0.07    0.00    0.19   -0.02    0.00    0.00      -0.10    2.52   -0.28
#  61   -0.28   -0.41    0.23    0.39   -0.08    0.00    0.00      -0.14    1.20   -0.25
#  62   -0.09   -0.84    1.63    0.32   -0.10    0.00    0.00       0.92    0.88   -0.28
#  63   -0.17   -0.03    0.00    0.03   -0.01    0.00    0.00      -0.17    1.02   -0.28
#  64   -2.98   -0.28    0.03    0.73   -0.08    0.00    0.00      -2.58    2.67   -0.28
#  65   -1.73   -0.18    0.02    1.05   -0.05    0.00    0.00      -0.88    6.08   -0.26
#  66   -1.06   -0.43    0.10    1.84   -0.10    0.00    0.00       0.35    4.91   -0.28
#  67   -2.41   -0.72    0.86    0.45   -0.10    0.00    0.00      -1.91    1.14   -0.24
#  68   -1.52   -0.26    0.03    0.41   -0.06    0.00    0.00      -1.40    1.51   -0.21
#  69   -1.31   -0.66    0.39    0.67   -0.11    0.00    0.00      -1.03    1.67   -0.28
#  70   -2.02   -0.39    0.14    0.24   -0.06    0.00    0.00      -2.09    0.93   -0.25

@<TRIPOS>MOLECULE
          T531069        94
   70    72     0     0     0



@<TRIPOS>ATOM
      1 F1          7.5253   -12.8721    91.3213 F          1          -0.1717
      2 C1          7.0683   -11.7152    91.9619 C.3        1           0.5088
      3 F2          7.3219   -10.6028    91.1522 F          1          -0.1748
      4 F3          5.6923   -11.8216    92.1906 F          1          -0.1741
      5 C2          7.7853   -11.5529    93.2774 C.ar       1          -0.1586
      6 C3          7.4934   -10.4776    94.0941 C.ar       1          -0.0943
      7 C4          8.1545   -10.3287    95.3060 C.ar       1           0.1470
      8 N1          7.8607    -9.2407    96.1358 N.am       1          -0.6775
      9 C5          6.6258    -8.7011    96.1275 C.2        1           0.7034
     10 O1          5.6600    -9.3965    95.8782 O.2        1          -0.5508
     11 N2          6.4613    -7.3905    96.3955 N.am       1          -0.6361
     12 C6          7.5169    -6.4025    96.0576 C.3        1           0.0943
     13 C7          7.3105    -5.4935    94.9133 C.3        1          -0.1571
     14 C8          5.9600    -4.7564    95.0879 C.3        1          -0.0100
     15 N3          4.8683    -5.6543    94.8307 N.4        1          -0.3665
     16 H1          5.1904    -6.3391    94.1633 H          1           0.4172
     17 C9          3.8045    -4.8794    94.1782 C.3        1          -0.0207
     18 C10         2.8566    -5.8308    93.4453 C.3        1          -0.1463
     19 C11         1.7486    -5.0238    92.7657 C.3        1          -0.1153
     20 C12         0.8008    -5.9752    92.0328 C.3        1          -0.1323
     21 C13         0.1799    -6.9495    93.0358 C.3        1           0.1183
     22 N4         -0.7277    -7.8605    92.3339 N.am       1          -0.7312
     23 C14        -0.2628    -9.0230    91.8351 C.2        1           0.5391
     24 O2          0.9110    -9.3160    91.9675 O.2        1          -0.5214
     25 C15        -1.1699    -9.9333    91.1338 C.2        1          -0.2159
     26 C16        -1.8152    -9.5197    90.0243 C.2        1          -0.0110
     27 C17        -1.4491    -8.2415    89.3933 C.ar       1          -0.0592
     28 C18        -2.4008    -7.2248    89.2624 C.ar       1          -0.0282
     29 C19        -2.0513    -6.0298    88.6710 C.ar       1          -0.1092
     30 C20        -0.7609    -5.8339    88.2064 C.ar       1          -0.0181
     31 Cl1        -0.3298    -4.3253    87.4633 Cl         1          -0.0474
     32 C21         0.1879    -6.8368    88.3326 C.ar       1          -0.0397
     33 Cl2         1.8021    -6.5808    87.7476 Cl         1          -0.0464
     34 C22        -0.1468    -8.0361    88.9274 C.ar       1          -0.0783
     35 C23         4.2443    -6.3968    95.9707 C.3        1          -0.0468
     36 C24         5.2602    -6.9082    97.0096 C.3        1           0.1146
     37 C25         9.1073   -11.2620    95.6932 C.ar       1          -0.0899
     38 C26         9.3945   -12.3347    94.8723 C.ar       1          -0.0977
     39 C27         8.7303   -12.4832    93.6683 C.ar       1          -0.0788
     40 H2          6.7522    -9.7533    93.7900 H          1           0.1375
     41 H3          8.5460    -8.8751    96.7170 H          1           0.4091
     42 H4          7.6817    -5.7849    96.9405 H          1           0.0925
     43 H5          8.4369    -6.9571    95.8731 H          1           0.0951
     44 H6          8.1210    -4.7658    94.8747 H          1           0.1283
     45 H7          7.2947    -6.0696    93.9880 H          1           0.0947
     46 H8          5.8842    -4.3795    96.1079 H          1           0.1286
     47 H9          5.9121    -3.9210    94.3893 H          1           0.1384
     48 H10         3.2481    -4.3206    94.9308 H          1           0.1346
     49 H11         4.2467    -4.1851    93.4635 H          1           0.1315
     50 H12         3.4130    -6.3895    92.6927 H          1           0.0871
     51 H13         2.4145    -6.5249    94.1600 H          1           0.0895
     52 H14         1.1923    -4.4650    93.5183 H          1           0.0797
     53 H15         2.1909    -4.3295    92.0511 H          1           0.0785
     54 H16         0.0115    -5.4001    91.5486 H          1           0.0739
     55 H17         1.3571    -6.5338    91.2801 H          1           0.0746
     56 H18         0.9693    -7.5246    93.5199 H          1           0.0696
     57 H19        -0.3763    -6.3908    93.7884 H          1           0.0693
     58 H20        -1.6633    -7.6270    92.2283 H          1           0.4014
     59 H21        -1.3220   -10.9360    91.5048 H          1           0.1386
     60 H22        -2.6007   -10.1265    89.5987 H          1           0.1464
     61 H23        -3.4073    -7.3758    89.6236 H          1           0.1261
     62 H24        -2.7856    -5.2443    88.5690 H          1           0.1398
     63 H25         0.5941    -8.8152    89.0293 H          1           0.1431
     64 H26         3.5377    -5.7344    96.4708 H          1           0.1315
     65 H27         3.6979    -7.2509    95.5709 H          1           0.1468
     66 H28         4.8027    -7.7169    97.5795 H          1           0.1028
     67 H29         5.5109    -6.0944    97.6903 H          1           0.1341
     68 H30         9.6235   -11.1487    96.6351 H          1           0.1506
     69 H31        10.1354   -13.0608    95.1728 H          1           0.1434
     70 H32         8.9533   -13.3255    93.0302 H          1           0.1453
@<TRIPOS>BOND
     1    1    2 1
     2    2    3 1
     3    2    4 1
     4    2    5 1
     5    5   39 ar
     6    5    6 ar
     7    6    7 ar
     8    6   40 1
     9    7    8 1
    10    7   37 ar
    11    8    9 am
    12    8   41 1
    13    9   10 2
    14    9   11 am
    15   11   36 1
    16   11   12 1
    17   12   13 1
    18   12   42 1
    19   12   43 1
    20   13   14 1
    21   13   44 1
    22   13   45 1
    23   14   15 1
    24   14   46 1
    25   14   47 1
    26   15   16 1
    27   15   17 1
    28   15   35 1
    29   17   18 1
    30   17   48 1
    31   17   49 1
    32   18   19 1
    33   18   50 1
    34   18   51 1
    35   19   20 1
    36   19   52 1
    37   19   53 1
    38   20   21 1
    39   20   54 1
    40   20   55 1
    41   21   22 1
    42   21   56 1
    43   21   57 1
    44   22   23 am
    45   22   58 1
    46   23   24 2
    47   23   25 1
    48   25   26 2
    49   25   59 1
    50   26   27 1
    51   26   60 1
    52   27   34 ar
    53   27   28 ar
    54   28   29 ar
    55   28   61 1
    56   29   30 ar
    57   29   62 1
    58   30   31 1
    59   30   32 ar
    60   32   33 1
    61   32   34 ar
    62   34   63 1
    63   35   36 1
    64   35   64 1
    65   35   65 1
    66   36   66 1
    67   36   67 1
    68   37   38 ar
    69   37   68 1
    70   38   39 ar
    71   38   69 1
    72   39   70 1
##########                 Name:              T533497
##########          Protonation:                   99
##########               SMILES:   C[C@@H](Cc1ccc(cc1)C(=O)OC)[NH2+]C[C@@H](c2ccc(c(c2)Cl)Cl)O
##########            Long Name:   )-2-hydroxy-ethyl]-[(1S)-2-(4-methoxycarbonylphenyl)-1-methyl-ethyl]ammonium
##########          FlexRecCode: 1
##########               Number:                  214
##########   Ligand Source File: /raidb/db2/rgc/tcams/tcams-0001086.db2.gz
##########           GlobalRank: 409
##########                 Rank:                    1
##########               Setnum:                  321
##########             Matchnum:                 2823
##########                Cloud:                    1
##########        Electrostatic:           -49.282120
##########        Van der Waals:           -22.013611
##########  Ligand Polar Desolv:            10.348831
########## Ligand Apolar Desolv:            -3.170295
##########      Internal Energy:             0.000000
##########      Receptor Energy: 0.0
########## Receptor Desolvation:             0.000000
########## Receptor Hydrophobic:             0.000000
##########         Total Energy: -64.12
##########        Ligand Charge:             1.000000
##########            Arbitrary:    +999.9990
##########     heavy atom count:   25
##########           pose count:    1
##########        Ligand Energy:             0.000000
# num electro vdwattr vdwrepu polsolv apolsol rdesolv rhydroe totalscore fullpol fullapo
#   1   -0.07   -0.70    0.22    0.03    0.01    0.00    0.00      -0.51    0.14    0.04
#   2    0.90   -0.84    0.16   -0.54    0.07    0.00    0.00      -0.24   -2.28    0.31
#   3   -0.99   -0.39    0.01    0.44   -0.02    0.00    0.00      -0.95    2.85   -0.16
#   4    0.72   -0.20    0.00   -0.13   -0.04    0.00    0.00       0.36   -1.40   -0.39
#   5    0.69   -0.44    0.01   -0.37   -0.07    0.00    0.00      -0.18   -2.26   -0.41
#   6    0.47   -0.52    0.04   -0.21   -0.08    0.00    0.00      -0.29   -1.21   -0.46
#   7    2.41   -1.14    0.23   -0.68   -0.12    0.00    0.00       0.69   -2.52   -0.45
#   8    2.26   -1.40    0.36   -0.23   -0.10    0.00    0.00       0.89   -0.72   -0.33
#   9    3.75   -2.06    1.47   -1.49   -0.10    0.00    0.00       1.57   -3.26   -0.21
#  10   -1.12   -1.20    0.22    1.06   -0.11    0.00    0.00      -1.14    2.40   -0.24
#  11    7.63   -2.63    0.95   -3.56   -0.11    0.00    0.00       2.27   -6.15   -0.19
#  12   20.28   -1.86    2.14   -6.18    0.21    0.00    0.00      14.60  -17.91    0.62
#  13  -13.90   -0.02    0.00    2.47    0.06    0.00    0.00     -11.38   15.52    0.38
#  14  -26.78   -0.26    0.23    5.56    0.17    0.00    0.00     -21.08   17.93    0.56
#  15    1.29   -0.67    0.07   -0.32   -0.12    0.00    0.00       0.25   -0.99   -0.36
#  16   -2.96   -0.79    0.16    1.21   -0.04    0.00    0.00      -2.42    4.24   -0.15
#  17   10.16   -0.53    0.03   -3.56    0.37    0.00    0.00       6.46  -15.66    1.61
#  18    1.49   -1.14    0.19   -0.51   -0.10    0.00    0.00      -0.07   -1.78   -0.34
#  19    1.02   -1.16    0.10   -0.55   -0.16    0.00    0.00      -0.75   -1.55   -0.44
#  20    0.67   -1.70    0.36   -0.70   -0.18    0.00    0.00      -1.55   -1.81   -0.46
#  21    0.08   -1.63    0.26   -0.35   -0.11    0.00    0.00      -1.76   -0.90   -0.29
#  22    0.11   -5.12    2.75   -0.47   -0.51    0.00    0.00      -3.25   -0.88   -0.95
#  23    0.13   -1.32    0.20   -0.32   -0.10    0.00    0.00      -1.40   -0.96   -0.29
#  24    0.21   -3.29    1.13   -0.34   -0.34    0.00    0.00      -2.64   -0.96   -0.95
#  25    0.55   -1.10    0.19   -0.40   -0.12    0.00    0.00      -0.87   -1.51   -0.44
#  26    2.97   -0.87    0.06   -0.82   -0.11    0.00    0.00       1.23   -2.78   -0.38
#  27    0.61   -0.63    0.03   -0.29   -0.11    0.00    0.00      -0.39   -1.21   -0.46
#  28   -0.17   -0.68    0.96    0.09   -0.07    0.00    0.00       0.13    0.34   -0.28
#  29   -0.20   -0.12    0.02    0.18   -0.03    0.00    0.00      -0.16    1.57   -0.28
#  30   -0.10   -0.10    0.01    0.02   -0.03    0.00    0.00      -0.20    0.20   -0.28
#  31   -0.96   -0.06    0.00    0.10   -0.02    0.00    0.00      -0.94    1.54   -0.27
#  32   -4.39   -0.34    0.08    1.09   -0.07    0.00    0.00      -3.62    4.25   -0.28
#  33   -5.11   -1.58    3.33    2.26   -0.13    0.00    0.00      -1.23    4.73   -0.28
#  34   -4.01   -0.89    0.69    1.66   -0.13    0.00    0.00      -2.67    3.68   -0.28
#  35   -4.07   -0.23    0.01    1.32   -0.06    0.00    0.00      -3.04    5.77   -0.28
#  36   -3.94   -0.85    0.60    1.09   -0.14    0.00    0.00      -3.24    2.11   -0.28
#  37   -4.40   -1.30    1.38    1.93   -0.13    0.00    0.00      -2.52    3.16   -0.21
#  38   -3.20   -1.44    1.47    1.90   -0.17    0.00    0.00      -1.43    3.17   -0.28
#  39   -4.26   -0.25    0.02    2.02   -0.07    0.00    0.00      -2.54    6.44   -0.23
#  40   -2.52   -0.14    0.00    0.70   -0.03    0.00    0.00      -1.98    6.04   -0.28
#  41   -3.71   -0.74    1.01    1.55   -0.08    0.00    0.00      -1.97    5.30   -0.28
#  42  -10.36   -0.01    0.00    1.71    0.14    0.00    0.00      -8.51   12.08    1.00
#  43   -2.12   -0.21    0.01    1.10   -0.05    0.00    0.00      -1.27    5.36   -0.23
#  44   -1.37   -0.61    0.43    0.61   -0.09    0.00    0.00      -1.03    1.90   -0.28
#  45   -1.06   -0.14    0.01    0.56   -0.04    0.00    0.00      -0.67    4.29   -0.28
#  46   -3.20   -0.21    0.01    1.47   -0.07    0.00    0.00      -1.99    6.25   -0.28
#  47   -2.71   -0.19    0.03    0.24   -0.05    0.00    0.00      -2.68    1.28   -0.26

@<TRIPOS>MOLECULE
          T533497        99
   47    48     0     0     0



@<TRIPOS>ATOM
      1 C1         -1.8522    -9.1809    91.0665 C.3        1           0.0326
      2 O1         -1.0686    -8.1692    91.7025 O.3        1          -0.3482
      3 C2          0.1078    -7.8545    91.1264 C.2        1           0.4985
      4 O2          0.4587    -8.4230    90.1121 O.2        1          -0.4910
      5 C3          0.9709    -6.8177    91.7283 C.ar       1          -0.1065
      6 C4          2.1881    -6.4846    91.1307 C.ar       1          -0.0500
      7 C5          2.9891    -5.5155    91.6980 C.ar       1          -0.1164
      8 C6          2.5889    -4.8738    92.8567 C.ar       1          -0.0953
      9 C7          3.4693    -3.8160    93.4708 C.3        1          -0.1045
     10 C8          4.4302    -4.4676    94.4673 C.3        1           0.0300
     11 C9          5.3240    -3.3937    95.0907 C.3        1          -0.1849
     12 N1          5.2646    -5.4546    93.7692 N.4        1          -0.5069
     13 H1          4.7016    -5.9582    93.1001 H          1           0.4298
     14 H2          6.0149    -4.9810    93.2885 H          1           0.4270
     15 C10         5.8268    -6.3982    94.7447 C.3        1          -0.0484
     16 C11         6.6959    -7.4262    94.0175 C.3        1           0.1365
     17 O3          6.0646    -7.8018    92.7918 O.3        1          -0.5431
     18 C12         6.8678    -8.6443    94.8879 C.ar       1          -0.1276
     19 C13         6.8540    -8.5171    96.2647 C.ar       1          -0.0902
     20 C14         7.0115    -9.6334    97.0641 C.ar       1          -0.0897
     21 C15         7.1825   -10.8790    96.4870 C.ar       1          -0.0178
     22 Cl1         7.3799   -12.2816    97.4907 Cl         1          -0.0239
     23 C16         7.1959   -11.0064    95.1085 C.ar       1          -0.0301
     24 Cl2         7.4099   -12.5688    94.3827 Cl         1          -0.0260
     25 C17         7.0333    -9.8886    94.3098 C.ar       1          -0.0817
     26 C18         1.3838    -5.1986    93.4539 C.ar       1          -0.1493
     27 C19         0.5705    -6.1620    92.8944 C.ar       1          -0.0426
     28 H3         -2.7716    -9.3370    91.6310 H          1           0.0657
     29 H4         -2.0979    -8.8661    90.0522 H          1           0.1100
     30 H5         -1.2852   -10.1110    91.0310 H          1           0.0664
     31 H6          2.5018    -6.9851    90.2264 H          1           0.1488
     32 H7          3.9310    -5.2573    91.2370 H          1           0.1405
     33 H8          4.0409    -3.3190    92.6870 H          1           0.1035
     34 H9          2.8500    -3.0838    93.9889 H          1           0.1269
     35 H10         3.8587    -4.9646    95.2512 H          1           0.1423
     36 H11         6.0085    -3.8579    95.8006 H          1           0.1101
     37 H12         5.8955    -2.8968    94.3066 H          1           0.0841
     38 H13         4.7048    -2.6614    95.6086 H          1           0.0857
     39 H14         6.4352    -5.8544    95.4673 H          1           0.1494
     40 H15         5.0165    -6.9099    95.2639 H          1           0.1389
     41 H16         7.6724    -6.9909    93.8046 H          1           0.1371
     42 H17         5.9221    -7.0657    92.1811 H          1           0.3892
     43 H18         6.7205    -7.5449    96.7155 H          1           0.1390
     44 H19         7.0014    -9.5333    98.1395 H          1           0.1525
     45 H20         7.0396    -9.9878    93.2343 H          1           0.1481
     46 H21         1.0773    -4.6938    94.3583 H          1           0.1338
     47 H22        -0.3718    -6.4115    93.3591 H          1           0.1479
@<TRIPOS>BOND
     1    1    2 1
     2    1   28 1
     3    1   29 1
     4    1   30 1
     5    2    3 1
     6    3    4 2
     7    3    5 1
     8    5   27 ar
     9    5    6 ar
    10    6    7 ar
    11    6   31 1
    12    7    8 ar
    13    7   32 1
    14    8    9 1
    15    8   26 ar
    16    9   10 1
    17    9   33 1
    18    9   34 1
    19   10   11 1
    20   10   12 1
    21   10   35 1
    22   11   36 1
    23   11   37 1
    24   11   38 1
    25   12   13 1
    26   12   14 1
    27   12   15 1
    28   15   16 1
    29   15   39 1
    30   15   40 1
    31   16   17 1
    32   16   18 1
    33   16   41 1
    34   17   42 1
    35   18   25 ar
    36   18   19 ar
    37   19   20 ar
    38   19   43 1
    39   20   21 ar
    40   20   44 1
    41   21   22 1
    42   21   23 ar
    43   23   24 1
    44   23   25 ar
    45   25   45 1
    46   26   27 ar
    47   26   46 1
    48   27   47 1
##########                 Name:              T529006
##########          Protonation:                   14
##########               SMILES:   Cc1ccc(cc1)n2cc(c(n2)c3ccc(cc3)F)C[NH2+]CCc4[nH]cc([nH+]4)C
##########            Long Name:   tolyl)pyrazol-4-yl]methyl-[2-(4-methyl-1H-imidazol-3-ium-2-yl)ethyl]ammonium
##########          FlexRecCode: 1
##########               Number:                   71
##########   Ligand Source File: /raidb/db2/rgc/tcams/tcams-0000554.db2.gz
##########           GlobalRank: 412
##########                 Rank:                    1
##########               Setnum:                  123
##########             Matchnum:                 3066
##########                Cloud:                    1
##########        Electrostatic:           -46.955189
##########        Van der Waals:           -32.236809
##########  Ligand Polar Desolv:            19.265375
########## Ligand Apolar Desolv:            -4.183633
##########      Internal Energy:             0.000000
##########      Receptor Energy: 0.0
########## Receptor Desolvation:             0.000000
########## Receptor Hydrophobic:             0.000000
##########         Total Energy: -64.11
##########        Ligand Charge:             2.000000
##########            Arbitrary:    +999.9990
##########     heavy atom count:   29
##########           pose count:    1
##########        Ligand Energy:             0.000000
# num electro vdwattr vdwrepu polsolv apolsol rdesolv rhydroe totalscore fullpol fullapo
#   1    2.64   -2.04    0.49   -2.51   -0.14    0.00    0.00      -1.56   -3.70   -0.20
#   2   -1.34   -2.08    0.23   -0.09   -0.49    0.00    0.00      -3.77   -0.14   -0.77
#   3   -1.05   -3.03    0.72    0.31   -0.59    0.00    0.00      -3.63    0.54   -1.01
#   4    9.67   -2.90    1.14  -10.84    0.58    0.00    0.00      -2.35  -22.07    1.18
#   5   -6.59   -1.49    0.15    8.14   -0.96    0.00    0.00      -0.76   17.47   -2.06
#   6    2.38   -0.78    0.06   -2.10   -0.10    0.00    0.00      -0.53   -5.57   -0.26
#   7    0.27   -0.70    0.07   -0.12   -0.13    0.00    0.00      -0.60   -0.39   -0.40
#   8   10.02   -0.53    0.01   -6.63    0.18    0.00    0.00       3.06  -26.43    0.73
#   9   -9.46   -0.01    0.00    2.90    0.07    0.00    0.00      -6.50   22.78    0.56
#  10   -6.18   -0.01    0.00    2.23    0.05    0.00    0.00      -3.91   25.26    0.56
#  11   -2.04   -0.46    0.02    1.16   -0.10    0.00    0.00      -1.42    4.79   -0.41
#  12    5.24   -0.65    0.04   -1.70   -0.08    0.00    0.00       2.85   -8.19   -0.39
#  13   -2.09   -0.79    0.04    0.86   -0.25    0.00    0.00      -2.23    3.11   -0.91
#  14    2.65   -1.06    0.18   -2.44    0.21    0.00    0.00      -0.46   -8.46    0.73
#  15    0.25   -2.12    1.88   -2.23    0.29    0.00    0.00      -1.93   -8.85    1.15
#  16   -0.69   -1.12    0.45    0.78   -0.15    0.00    0.00      -0.73    3.83   -0.73
#  17    0.15   -0.90    0.29   -0.12   -0.07    0.00    0.00      -0.66   -0.70   -0.40
#  18    0.21   -0.48    0.09   -0.09   -0.05    0.00    0.00      -0.33   -0.69   -0.42
#  19    0.06   -0.25    0.02   -0.35   -0.04    0.00    0.00      -0.56   -3.67   -0.47
#  20   -0.08   -0.23    0.01    0.11   -0.03    0.00    0.00      -0.22    1.11   -0.34
#  21    0.10   -0.06    0.00   -0.19   -0.03    0.00    0.00      -0.18   -3.32   -0.48
#  22    0.12   -0.40    0.03   -0.58   -0.07    0.00    0.00      -0.90   -3.94   -0.47
#  23    0.07   -0.75    0.15   -0.33   -0.09    0.00    0.00      -0.95   -1.76   -0.45
#  24   -1.07   -1.17    0.11    1.00   -0.25    0.00    0.00      -1.38    2.85   -0.71
#  25    0.75   -1.36    0.16   -0.86   -0.16    0.00    0.00      -1.46   -2.40   -0.44
#  26    0.84   -1.52    0.28   -0.81   -0.18    0.00    0.00      -1.40   -1.98   -0.45
#  27    0.86   -1.87    0.46   -0.99   -0.21    0.00    0.00      -1.75   -1.95   -0.41
#  28    2.20   -1.91    0.78   -0.94   -0.11    0.00    0.00       0.02   -1.64   -0.20
#  29    1.56   -1.82    0.22   -0.96   -0.24    0.00    0.00      -1.24   -1.80   -0.45
#  30    1.40   -1.39    0.13   -1.07   -0.20    0.00    0.00      -1.12   -2.42   -0.46
#  31   11.20   -1.69    0.14  -11.22    0.59    0.00    0.00      -0.98  -20.32    1.06
#  32  -11.56   -0.03    0.00    8.95    0.24    0.00    0.00      -2.40   21.66    0.59
#  33   -2.55   -0.78    0.22    1.59   -0.18    0.00    0.00      -1.70    2.49   -0.28
#  34   -2.75   -0.69    0.45    1.10   -0.15    0.00    0.00      -2.03    2.08   -0.28
#  35   -2.29   -0.92    0.50    1.39   -0.17    0.00    0.00      -1.48    2.35   -0.28
#  36   -5.36   -0.93    0.33    4.97   -0.17    0.00    0.00      -1.16    8.18   -0.28
#  37   -6.24   -0.12    0.02    9.88    0.26    0.00    0.00       3.79   22.79    0.59
#  38   -4.24   -0.35    0.07    2.77   -0.08    0.00    0.00      -1.83    9.19   -0.28
#  39   -3.58   -0.23    0.03    2.31   -0.06    0.00    0.00      -1.53   10.22   -0.28
#  40   -2.11   -0.23    0.05    1.93   -0.05    0.00    0.00      -0.40   11.12   -0.28
#  41   -3.49   -0.39    0.11    3.09   -0.09    0.00    0.00      -0.76    9.90   -0.28
#  42   -3.09   -0.12    0.01    1.53   -0.04    0.00    0.00      -1.71   11.66   -0.28
#  43   -4.84   -0.24    0.03    1.82   -0.04    0.00    0.00      -3.27    8.48   -0.20
#  44   -4.52   -0.18    0.01    1.83   -0.04    0.00    0.00      -2.90   10.45   -0.24
#  45   -0.78   -0.06    0.00    0.54   -0.01    0.00    0.00      -0.31    9.29   -0.22
#  46   -0.08   -0.02    0.00    0.16   -0.01    0.00    0.00       0.04    5.43   -0.28
#  47   -0.19   -0.06    0.00    0.09   -0.02    0.00    0.00      -0.17    1.69   -0.28
#  48   -0.43   -0.15    0.02    0.30   -0.04    0.00    0.00      -0.30    2.15   -0.28
#  49   -0.34   -0.29    0.04    1.59   -0.06    0.00    0.00       0.95    6.46   -0.23
#  50   -1.11   -0.25    0.02    0.88   -0.07    0.00    0.00      -0.53    3.41   -0.28
#  51   -2.05   -0.94    0.74    0.45   -0.16    0.00    0.00      -1.95    0.79   -0.28
#  52   -1.17   -0.88    0.91    0.31   -0.15    0.00    0.00      -0.98    0.59   -0.28
#  53   -1.04   -0.54    0.43    0.59   -0.13    0.00    0.00      -0.69    1.27   -0.28
#  54   -2.73   -0.48    0.06    0.60   -0.15    0.00    0.00      -2.69    1.11   -0.28
#  55   -2.47   -0.33    0.10    0.27   -0.07    0.00    0.00      -2.50    1.01   -0.26

@<TRIPOS>MOLECULE
          T529006        14
   55    58     0     0     0



@<TRIPOS>ATOM
      1 C1         -3.7865    -1.6799    93.1326 C.3        1          -0.1114
      2 C2         -2.4347    -2.3419    93.0579 C.2        1           0.0565
      3 C3         -1.4138    -1.9689    92.2630 C.2        1           0.0454
      4 N1         -0.3823    -2.8337    92.5112 N.pl3      1          -0.4916
      5 C4         -0.8092    -3.7057    93.4498 C.cat      1           0.2893
      6 C5         -0.0007    -4.8380    94.0293 C.3        1          -0.0980
      7 C6          1.3889    -4.8522    93.3893 C.3        1          -0.0134
      8 N2          2.1769    -5.9559    93.9540 N.4        1          -0.5108
      9 H1          2.2669    -5.8290    94.9509 H          1           0.4322
     10 H2          1.7115    -6.8315    93.7672 H          1           0.4333
     11 C7          3.5111    -5.9695    93.3395 C.3        1           0.0865
     12 C8          4.3194    -7.1017    93.9189 C.2        1          -0.3156
     13 C9          5.1094    -7.0362    95.0125 C.2        1           0.1169
     14 N3          5.6601    -8.2635    95.2030 N.pl3      1          -0.2828
     15 N4          5.1912    -9.1106    94.1907 N.2        1          -0.2460
     16 C10         4.3800    -8.4178    93.4191 C.2        1           0.1401
     17 C11         3.6588    -8.9319    92.2288 C.ar       1          -0.0606
     18 C12         4.3717    -9.4565    91.1524 C.ar       1          -0.0852
     19 C13         3.6970    -9.9339    90.0476 C.ar       1          -0.1534
     20 C14         2.3126    -9.8922    90.0073 C.ar       1           0.1268
     21 F1          1.6560   -10.3608    88.9237 F          1          -0.1242
     22 C15         1.5999    -9.3719    91.0755 C.ar       1          -0.1450
     23 C16         2.2664    -8.8968    92.1862 C.ar       1          -0.0526
     24 C17         6.5427    -8.6194    96.2313 C.ar       1           0.1079
     25 C18         7.0376    -9.9147    96.3062 C.ar       1          -0.1209
     26 C19         7.9075   -10.2625    97.3210 C.ar       1          -0.0964
     27 C20         8.2853    -9.3225    98.2622 C.ar       1          -0.0622
     28 C21         9.2343    -9.7054    99.3685 C.3        1          -0.1274
     29 C22         7.7946    -8.0316    98.1901 C.ar       1          -0.0967
     30 C23         6.9288    -7.6762    97.1743 C.ar       1          -0.0954
     31 N5         -2.0358    -3.4024    93.7757 N.pl3      1          -0.4614
     32 H3         -2.5748    -3.8711    94.4321 H          1           0.4652
     33 H4         -3.8206    -0.8439    92.4340 H          1           0.1088
     34 H5         -4.5599    -2.4025    92.8727 H          1           0.1156
     35 H6         -3.9566    -1.3142    94.1453 H          1           0.0968
     36 H7         -1.4097    -1.1459    91.5638 H          1           0.2361
     37 H8          0.4922    -2.8224    92.0914 H          1           0.4681
     38 H9          0.0965    -4.7009    95.1062 H          1           0.1443
     39 H10        -0.5035    -5.7838    93.8274 H          1           0.1453
     40 H11         1.2914    -4.9893    92.3123 H          1           0.1471
     41 H12         1.8916    -3.9064    93.5911 H          1           0.1454
     42 H13         3.4136    -6.1066    92.2625 H          1           0.1438
     43 H14         4.0137    -5.0237    93.5413 H          1           0.1411
     44 H15         5.2743    -6.1631    95.6265 H          1           0.1923
     45 H16         5.4508    -9.4891    91.1828 H          1           0.1363
     46 H17         4.2486   -10.3403    89.2129 H          1           0.1472
     47 H18         0.5210    -9.3414    91.0399 H          1           0.1503
     48 H19         1.7098    -8.4952    93.0201 H          1           0.1433
     49 H20         6.7424   -10.6495    95.5718 H          1           0.1300
     50 H21         8.2927   -11.2697    97.3797 H          1           0.1416
     51 H22         9.4145    -8.8412   100.0080 H          1           0.0828
     52 H23         8.7974   -10.5102    99.9597 H          1           0.0764
     53 H24        10.1775   -10.0416    98.9379 H          1           0.0755
     54 H25         8.0915    -7.2997    98.9267 H          1           0.1419
     55 H26         6.5491    -6.6668    97.1162 H          1           0.1409
@<TRIPOS>BOND
     1    1    2 1
     2    1   33 1
     3    1   34 1
     4    1   35 1
     5    2   31 1
     6    2    3 2
     7    3    4 1
     8    3   36 1
     9    4    5 1
    10    4   37 1
    11    5    6 1
    12    5   31 2
    13    6    7 1
    14    6   38 1
    15    6   39 1
    16    7    8 1
    17    7   40 1
    18    7   41 1
    19    8    9 1
    20    8   10 1
    21    8   11 1
    22   11   12 1
    23   11   42 1
    24   11   43 1
    25   12   16 1
    26   12   13 2
    27   13   14 1
    28   13   44 1
    29   14   15 1
    30   14   24 1
    31   15   16 2
    32   16   17 1
    33   17   23 ar
    34   17   18 ar
    35   18   19 ar
    36   18   45 1
    37   19   20 ar
    38   19   46 1
    39   20   21 1
    40   20   22 ar
    41   22   23 ar
    42   22   47 1
    43   23   48 1
    44   24   30 ar
    45   24   25 ar
    46   25   26 ar
    47   25   49 1
    48   26   27 ar
    49   26   50 1
    50   27   28 1
    51   27   29 ar
    52   28   51 1
    53   28   52 1
    54   28   53 1
    55   29   30 ar
    56   29   54 1
    57   30   55 1
    58   31   32 1
##########                 Name:              T533322
##########          Protonation:                   99
##########               SMILES:   C[C@@H](Cc1ccc(cc1)NC(=O)c2ccc(cc2)C[NH2+]CCc3ccccc3)[NH2+]CCc4cccc(c4)Cl
##########            Long Name:   ethyl-2-[4-[[4-[(phenethylammonio)methyl]benzoyl]amino]phenyl]ethyl]ammonium
##########          FlexRecCode: 1
##########               Number:                  144
##########   Ligand Source File: /raidb/db2/rgc/tcams/tcams-0001082.db2.gz
##########           GlobalRank: 412
##########                 Rank:                    1
##########               Setnum:                    6
##########             Matchnum:                 2687
##########                Cloud:                    1
##########        Electrostatic:           -40.149769
##########        Van der Waals:           -26.798782
##########  Ligand Polar Desolv:             6.922688
########## Ligand Apolar Desolv:            -4.085356
##########      Internal Energy:             0.000000
##########      Receptor Energy: 0.0
########## Receptor Desolvation:             0.000000
########## Receptor Hydrophobic:             0.000000
##########         Total Energy: -64.11
##########        Ligand Charge:             2.000000
##########            Arbitrary:    +999.9990
##########     heavy atom count:   38
##########           pose count:    1
##########        Ligand Energy:             0.000000
# num electro vdwattr vdwrepu polsolv apolsol rdesolv rhydroe totalscore fullpol fullapo
#   1   -0.01   -0.03    0.00   -0.17    0.00    0.00    0.00      -0.21   -6.51   -0.19
#   2    0.00   -0.05    0.00    0.10   -0.01    0.00    0.00       0.04    2.81   -0.24
#   3   -0.01   -0.09    0.00   -0.20   -0.01    0.00    0.00      -0.32   -3.17   -0.21
#   4   -0.02   -0.27    0.01   -0.29   -0.04    0.00    0.00      -0.60   -2.70   -0.33
#   5   -0.07   -0.38    0.07   -0.34   -0.05    0.00    0.00      -0.77   -2.82   -0.38
#   6   -0.10   -0.48    0.08   -0.54   -0.07    0.00    0.00      -1.11   -3.67   -0.46
#   7   -0.14   -0.47    0.03    0.35   -0.12    0.00    0.00      -0.35    1.94   -0.68
#   8    2.91   -0.51    0.02   -3.25    0.40    0.00    0.00      -0.44  -13.38    1.64
#   9   -2.44   -0.44    0.03    1.43   -0.10    0.00    0.00      -1.52    8.68   -0.63
#  10    0.88   -0.25    0.01   -0.77    0.04    0.00    0.00      -0.10   -6.78    0.33
#  11    1.02   -0.71    0.13   -0.68   -0.08    0.00    0.00      -0.31   -3.68   -0.41
#  12    1.40   -0.74    0.08   -0.58   -0.10    0.00    0.00       0.06   -2.61   -0.44
#  13    2.29   -1.03    0.19   -0.74   -0.12    0.00    0.00       0.59   -2.85   -0.45
#  14    2.79   -0.77    0.10   -0.56   -0.08    0.00    0.00       1.47   -2.50   -0.37
#  15   -0.96   -0.48    0.07    0.52   -0.09    0.00    0.00      -0.93    2.54   -0.42
#  16   18.58   -1.80    2.26   -5.68    0.20    0.00    0.00      13.56  -20.80    0.73
#  17  -12.20   -0.02    0.00    4.47    0.12    0.00    0.00      -7.63   21.02    0.57
#  18  -25.88   -0.25    0.21    6.51    0.18    0.00    0.00     -19.22   20.15    0.57
#  19    0.24   -0.76    0.24    0.25   -0.10    0.00    0.00      -0.13    1.02   -0.40
#  20    3.48   -0.95    0.25   -1.36   -0.09    0.00    0.00       1.33   -3.61   -0.25
#  21    2.93   -1.15    0.11   -0.63   -0.14    0.00    0.00       1.12   -1.65   -0.36
#  22    1.84   -1.15    0.09   -0.99   -0.17    0.00    0.00      -0.37   -2.66   -0.45
#  23    1.44   -1.66    0.25   -1.18   -0.21    0.00    0.00      -1.36   -2.69   -0.47
#  24    1.57   -1.59    0.25   -1.21   -0.22    0.00    0.00      -1.20   -2.57   -0.47
#  25    2.35   -2.25    0.74   -1.22   -0.21    0.00    0.00      -0.59   -2.72   -0.47
#  26    3.11   -1.81    0.35   -1.17   -0.20    0.00    0.00       0.28   -2.61   -0.45
#  27    1.23   -0.96    0.34   -0.56   -0.09    0.00    0.00      -0.03   -2.89   -0.45
#  28    0.49   -1.35    1.03   -0.52   -0.08    0.00    0.00      -0.43   -2.86   -0.46
#  29    0.11   -0.58    0.04   -0.72   -0.09    0.00    0.00      -1.25   -3.32   -0.40
#  30    0.04   -0.41    0.02   -0.45   -0.08    0.00    0.00      -0.88   -2.67   -0.45
#  31    0.19   -0.13    0.00   -1.28    0.04    0.00    0.00      -1.18  -19.60    0.62
#  32   -0.25    0.00    0.00    0.65    0.01    0.00    0.00       0.41   18.56    0.42
#  33   -0.14    0.00    0.00    0.66    0.02    0.00    0.00       0.53   20.49    0.56
#  34    0.00   -0.13    0.00    0.02   -0.03    0.00    0.00      -0.13    0.29   -0.38
#  35    0.06   -0.54    0.12   -0.67   -0.05    0.00    0.00      -1.07   -3.54   -0.25
#  36    0.03   -1.57    1.15   -0.30   -0.09    0.00    0.00      -0.78   -1.26   -0.36
#  37    0.05   -1.48    0.46   -0.69   -0.13    0.00    0.00      -1.79   -2.46   -0.45
#  38    0.01   -1.65    0.37   -0.85   -0.16    0.00    0.00      -2.27   -2.57   -0.47
#  39   -0.02   -1.24    0.17   -0.84   -0.15    0.00    0.00      -2.08   -2.61   -0.46
#  40   -0.01   -1.21    0.31   -0.42   -0.09    0.00    0.00      -1.41   -1.36   -0.30
#  41   -0.02   -2.58    0.98   -0.54   -0.30    0.00    0.00      -2.46   -1.74   -0.98
#  42    0.01   -1.73    1.27   -0.64   -0.12    0.00    0.00      -1.21   -2.46   -0.45
#  43    0.00   -0.01    0.00    0.05    0.00    0.00    0.00       0.04    3.54   -0.28
#  44    0.00   -0.01    0.00    0.03    0.00    0.00    0.00       0.02    1.67   -0.28
#  45    0.01    0.00    0.00    0.04    0.00    0.00    0.00       0.04    3.16   -0.21
#  46   -0.01   -0.01    0.00    0.09    0.00    0.00    0.00       0.07    5.18   -0.28
#  47    0.05   -0.02    0.00    0.08   -0.01    0.00    0.00       0.09    2.55   -0.28
#  48    0.01   -0.03    0.00    0.16   -0.01    0.00    0.00       0.12    5.15   -0.28
#  49    0.09   -0.06    0.01    0.47   -0.02    0.00    0.00       0.49    8.14   -0.28
#  50    0.18   -0.09    0.01    0.42   -0.03    0.00    0.00       0.50    4.71   -0.28
#  51   -3.73   -0.01    0.00    1.70    0.07    0.00    0.00      -1.96   11.23    0.46
#  52   -2.47   -0.13    0.01    0.59   -0.03    0.00    0.00      -2.02    4.86   -0.22
#  53   -4.53   -0.33    0.09    1.94   -0.07    0.00    0.00      -2.89    8.07   -0.28
#  54   -3.55   -0.14    0.02    0.82   -0.03    0.00    0.00      -2.90    6.80   -0.28
#  55   -1.99   -0.07    0.00    0.49   -0.02    0.00    0.00      -1.59    7.99   -0.28
#  56   -4.59   -0.27    0.06    1.13   -0.06    0.00    0.00      -3.73    5.61   -0.28
#  57   -2.43   -0.10    0.00    0.60   -0.03    0.00    0.00      -1.95    6.27   -0.28
#  58   -4.72   -0.77    1.16    1.86   -0.11    0.00    0.00      -2.57    4.80   -0.28
#  59   -2.85   -0.20    0.01    0.90   -0.06    0.00    0.00      -2.20    4.33   -0.28
#  60   -1.86   -0.20    0.01    0.91   -0.06    0.00    0.00      -1.19    4.17   -0.28
#  61   -1.11   -0.73    0.54    0.57   -0.12    0.00    0.00      -0.85    1.35   -0.28
#  62   -2.03   -0.31    0.02    0.30   -0.11    0.00    0.00      -2.13    0.73   -0.28
#  63   -2.83   -1.13    1.72    0.70   -0.13    0.00    0.00      -1.67    1.54   -0.28
#  64   -4.75   -0.57    0.20    2.22   -0.13    0.00    0.00      -3.03    4.64   -0.28
#  65   -1.52   -0.14    0.02    0.65   -0.03    0.00    0.00      -1.02    5.58   -0.28
#  66   -0.93   -0.29    0.23    0.11   -0.04    0.00    0.00      -0.91    0.77   -0.27
#  67   -0.87   -0.20    0.03    0.07   -0.04    0.00    0.00      -1.00    0.37   -0.22
#  68   -0.11   -0.08    0.00    0.18   -0.02    0.00    0.00      -0.02    2.62   -0.28
#  69   -0.03   -0.03    0.00    0.14   -0.01    0.00    0.00       0.07    5.67   -0.23
#  70   -0.06   -0.02    0.00    0.12   -0.01    0.00    0.00       0.03    5.08   -0.28
#  71   -0.07   -0.23    0.07    0.80   -0.04    0.00    0.00       0.52    5.02   -0.28
#  72   -0.11   -0.17    0.02    0.92   -0.05    0.00    0.00       0.62    5.56   -0.28
#  73   -0.13   -0.31    0.10    1.18   -0.06    0.00    0.00       0.79    5.35   -0.28
#  74   -0.04   -0.55    0.29    0.66   -0.08    0.00    0.00       0.28    2.20   -0.28
#  75    0.07   -0.28    0.04    0.24   -0.07    0.00    0.00       0.00    0.91   -0.28
#  76   -0.02   -0.28    0.08    0.88   -0.06    0.00    0.00       0.61    4.39   -0.28

@<TRIPOS>MOLECULE
          T533322        99
   76    79     0     0     0



@<TRIPOS>ATOM
      1 C1         18.9004   -10.1059    85.9659 C.3        1          -0.1851
      2 C2         17.4798    -9.7664    86.4217 C.3        1           0.0309
      3 C3         17.5420    -8.8362    87.6348 C.3        1          -0.0993
      4 C4         16.1428    -8.5020    88.0838 C.ar       1          -0.1367
      5 C5         15.5090    -9.3003    89.0184 C.ar       1          -0.1180
      6 C6         14.2270    -8.9963    89.4323 C.ar       1          -0.1330
      7 C7         13.5743    -7.8877    88.9090 C.ar       1           0.1588
      8 N1         12.2762    -7.5769    89.3264 N.am       1          -0.6705
      9 C8         11.4392    -8.5598    89.7131 C.2        1           0.5552
     10 O1         11.8125    -9.7166    89.6990 O.2        1          -0.4951
     11 C9         10.0671    -8.2314    90.1540 C.ar       1          -0.1034
     12 C10         9.4333    -7.0830    89.6763 C.ar       1          -0.0834
     13 C11         8.1526    -6.7825    90.0916 C.ar       1          -0.0961
     14 C12         7.4963    -7.6165    90.9794 C.ar       1          -0.1354
     15 C13         6.0971    -7.2821    91.4283 C.3        1           0.0410
     16 N2          6.1565    -6.4476    92.6358 N.4        1          -0.5091
     17 H1          6.6338    -6.9503    93.3689 H          1           0.4275
     18 H2          6.6568    -5.5955    92.4315 H          1           0.4287
     19 C14         4.7925    -6.1216    93.0734 C.3        1          -0.0076
     20 C15         4.8545    -5.2525    94.3311 C.3        1          -0.0990
     21 C16         5.5673    -6.0034    95.4260 C.ar       1          -0.1126
     22 C17         4.8509    -6.8086    96.2915 C.ar       1          -0.1099
     23 C18         5.5048    -7.4974    97.2960 C.ar       1          -0.1132
     24 C19         6.8753    -7.3814    97.4345 C.ar       1          -0.1018
     25 C20         7.5919    -6.5768    96.5684 C.ar       1          -0.1137
     26 C21         6.9385    -5.8913    95.5613 C.ar       1          -0.1103
     27 C22         8.1188    -8.7561    91.4568 C.ar       1          -0.0938
     28 C23         9.3974    -9.0711    91.0455 C.ar       1          -0.0519
     29 C24        14.2138    -7.0880    87.9705 C.ar       1          -0.1095
     30 C25        15.4978    -7.3944    87.5648 C.ar       1          -0.0804
     31 N3         16.7614    -9.0982    85.3285 N.4        1          -0.5099
     32 H3         15.9749    -8.5898    85.7042 H          1           0.4238
     33 H4         17.3836    -8.4566    84.8598 H          1           0.4257
     34 C26        16.2824   -10.1035    84.3706 C.3        1          -0.0118
     35 C27        15.5341    -9.4075    83.2320 C.3        1          -0.0992
     36 C28        16.4632    -8.4494    82.5320 C.ar       1          -0.0960
     37 C29        16.5567    -7.1387    82.9621 C.ar       1          -0.1053
     38 C30        17.4090    -6.2595    82.3209 C.ar       1          -0.0976
     39 C31        18.1680    -6.6902    81.2489 C.ar       1          -0.0952
     40 C32        18.0750    -8.0015    80.8181 C.ar       1          -0.0325
     41 Cl1        19.0283    -8.5432    79.4723 Cl         1          -0.0531
     42 C33        17.2257    -8.8826    81.4641 C.ar       1          -0.1038
     43 H5         18.8561   -10.7685    85.1016 H          1           0.0848
     44 H6         19.4237    -9.1890    85.6943 H          1           0.1088
     45 H7         19.4336   -10.6017    86.7770 H          1           0.0844
     46 H8         16.9566   -10.6832    86.6932 H          1           0.1405
     47 H9         18.0750    -9.3323    88.4460 H          1           0.1230
     48 H10        18.0654    -7.9195    87.3633 H          1           0.0999
     49 H11        16.0169   -10.1624    89.4246 H          1           0.1291
     50 H12        13.7323    -9.6205    90.1619 H          1           0.1356
     51 H13        11.9784    -6.6538    89.3377 H          1           0.4140
     52 H14         9.9446    -6.4311    88.9835 H          1           0.1376
     53 H15         7.6611    -5.8943    89.7230 H          1           0.1428
     54 H16         5.5814    -6.7390    90.6364 H          1           0.1438
     55 H17         5.5566    -8.2025    91.6491 H          1           0.1432
     56 H18         4.2771    -5.5784    92.2813 H          1           0.1358
     57 H19         4.2521    -7.0421    93.2940 H          1           0.1353
     58 H20         5.3949    -4.3320    94.1103 H          1           0.0949
     59 H21         3.8424    -5.0106    94.6558 H          1           0.0955
     60 H22         3.7801    -6.8993    96.1833 H          1           0.1242
     61 H23         4.9450    -8.1259    97.9725 H          1           0.1305
     62 H24         7.3861    -7.9188    98.2196 H          1           0.1310
     63 H25         8.6626    -6.4858    96.6769 H          1           0.1302
     64 H26         7.4988    -5.2657    94.8823 H          1           0.1236
     65 H27         7.6011    -9.4026    92.1500 H          1           0.1450
     66 H28         9.8806    -9.9632    91.4157 H          1           0.1520
     67 H29        13.7090    -6.2252    87.5617 H          1           0.1418
     68 H30        15.9972    -6.7706    86.8382 H          1           0.1363
     69 H31        17.1321   -10.6525    83.9646 H          1           0.1385
     70 H32        15.6104   -10.7965    84.8768 H          1           0.1333
     71 H33        15.1786   -10.1536    82.5213 H          1           0.0959
     72 H34        14.6843    -8.8585    83.6378 H          1           0.1005
     73 H35        15.9633    -6.8016    83.7991 H          1           0.1327
     74 H36        17.4816    -5.2359    82.6573 H          1           0.1415
     75 H37        18.8334    -6.0030    80.7475 H          1           0.1419
     76 H38        17.1556    -9.9074    81.1308 H          1           0.1335
@<TRIPOS>BOND
     1    1    2 1
     2    1   43 1
     3    1   44 1
     4    1   45 1
     5    2    3 1
     6    2   31 1
     7    2   46 1
     8    3    4 1
     9    3   47 1
    10    3   48 1
    11    4   30 ar
    12    4    5 ar
    13    5    6 ar
    14    5   49 1
    15    6    7 ar
    16    6   50 1
    17    7    8 1
    18    7   29 ar
    19    8    9 am
    20    8   51 1
    21    9   10 2
    22    9   11 1
    23   11   28 ar
    24   11   12 ar
    25   12   13 ar
    26   12   52 1
    27   13   14 ar
    28   13   53 1
    29   14   15 1
    30   14   27 ar
    31   15   16 1
    32   15   54 1
    33   15   55 1
    34   16   17 1
    35   16   18 1
    36   16   19 1
    37   19   20 1
    38   19   56 1
    39   19   57 1
    40   20   21 1
    41   20   58 1
    42   20   59 1
    43   21   26 ar
    44   21   22 ar
    45   22   23 ar
    46   22   60 1
    47   23   24 ar
    48   23   61 1
    49   24   25 ar
    50   24   62 1
    51   25   26 ar
    52   25   63 1
    53   26   64 1
    54   27   28 ar
    55   27   65 1
    56   28   66 1
    57   29   30 ar
    58   29   67 1
    59   30   68 1
    60   31   32 1
    61   31   33 1
    62   31   34 1
    63   34   35 1
    64   34   69 1
    65   34   70 1
    66   35   36 1
    67   35   71 1
    68   35   72 1
    69   36   42 ar
    70   36   37 ar
    71   37   38 ar
    72   37   73 1
    73   38   39 ar
    74   38   74 1
    75   39   40 ar
    76   39   75 1
    77   40   41 1
    78   40   42 ar
    79   42   76 1
##########                 Name:              T539925
##########          Protonation:                  100
##########               SMILES:   2c3c(cccc3)Cl)C(=O)N[C@H]4CC[C@H](CC4)C[NH+]5CC[C@@H](CC5)c6c7c([nH]c6)cccc7
##########            Long Name:   3-yl)piperidin-1-ium-1-yl]methyl]cyclohexyl]-1-phenyl-pyrazole-4-carboxamide
##########          FlexRecCode: 1
##########               Number:                   36
##########   Ligand Source File: /raidb/db2/rgc/tcams/tcams-0001954.db2.gz
##########           GlobalRank: 412
##########                 Rank:                    1
##########               Setnum:                  217
##########             Matchnum:                  218
##########                Cloud:                    1
##########        Electrostatic:           -31.475647
##########        Van der Waals:           -39.302734
##########  Ligand Polar Desolv:            12.299727
########## Ligand Apolar Desolv:            -5.627270
##########      Internal Energy:             0.000000
##########      Receptor Energy: 0.0
########## Receptor Desolvation:             0.000000
########## Receptor Hydrophobic:             0.000000
##########         Total Energy: -64.11
##########        Ligand Charge:             1.000000
##########            Arbitrary:    +999.9990
##########     heavy atom count:   43
##########           pose count:    1
##########        Ligand Energy:             0.000000
# num electro vdwattr vdwrepu polsolv apolsol rdesolv rhydroe totalscore fullpol fullapo
#   1    0.07   -2.86    1.78   -0.06   -0.27    0.00    0.00      -1.33   -0.20   -0.95
#   2    0.00   -0.32    0.01   -0.02   -0.04    0.00    0.00      -0.36   -0.14   -0.29
#   3    0.11   -0.23    0.01   -0.05   -0.05    0.00    0.00      -0.22   -0.53   -0.46
#   4    0.07   -0.09    0.00   -0.02   -0.02    0.00    0.00      -0.06   -0.56   -0.47
#   5    0.09   -0.07    0.00   -0.02   -0.02    0.00    0.00      -0.01   -0.64   -0.47
#   6    0.08   -0.10    0.00   -0.02   -0.02    0.00    0.00      -0.05   -0.45   -0.36
#   7    0.04   -0.19    0.00   -0.01   -0.02    0.00    0.00      -0.17   -0.10   -0.20
#   8   -0.40   -0.38    0.02    0.08   -0.08    0.00    0.00      -0.77    0.51   -0.57
#   9    0.82   -0.55    0.04   -0.36   -0.08    0.00    0.00      -0.14   -1.86   -0.43
#  10   -0.37   -1.64    0.52    0.37   -0.31    0.00    0.00      -1.44    1.21   -1.01
#  11    0.90   -2.28    1.64   -0.56    0.37    0.00    0.00       0.08   -1.87    1.25
#  12    0.70   -0.77    0.11   -0.22    0.14    0.00    0.00      -0.03   -1.06    0.69
#  13   -0.32   -0.71    0.06    0.06   -0.17    0.00    0.00      -1.07    0.25   -0.68
#  14    0.34   -1.51    0.30   -0.23   -0.16    0.00    0.00      -1.26   -0.58   -0.42
#  15    0.28   -1.87    0.36   -0.27   -0.22    0.00    0.00      -1.71   -0.58   -0.47
#  16    0.27   -1.55    0.25   -0.32   -0.19    0.00    0.00      -1.54   -0.77   -0.47
#  17    0.20   -0.67    0.04   -0.15   -0.12    0.00    0.00      -0.70   -0.61   -0.47
#  18    0.20   -0.41    0.01   -0.08   -0.07    0.00    0.00      -0.35   -0.51   -0.45
#  19   -2.84   -0.37    0.02    0.57   -0.09    0.00    0.00      -2.71    3.96   -0.65
#  20    1.34   -0.18    0.00   -0.07    0.03    0.00    0.00       1.12   -0.83    0.37
#  21    6.16   -0.74    0.13   -1.85    0.34    0.00    0.00       4.05   -9.20    1.71
#  22   -1.41   -0.32    0.01    0.36   -0.05    0.00    0.00      -1.40    1.97   -0.28
#  23    2.31   -0.53    0.03   -0.52   -0.07    0.00    0.00       1.23   -1.87   -0.24
#  24    2.58   -0.80    0.11   -0.72   -0.07    0.00    0.00       1.12   -2.20   -0.20
#  25    2.59   -0.47    0.01   -0.75   -0.04    0.00    0.00       1.35   -2.79   -0.14
#  26    0.26   -0.78    0.07    0.15   -0.12    0.00    0.00      -0.41    0.39   -0.31
#  27    9.04   -0.78    0.05   -4.11    0.09    0.00    0.00       4.29  -12.38    0.27
#  28   -7.23   -0.01    0.00    1.87    0.05    0.00    0.00      -5.32   16.63    0.43
#  29    0.23   -1.03    0.17    0.03   -0.15    0.00    0.00      -0.75    0.07   -0.37
#  30    1.74   -1.14    0.18   -1.58   -0.10    0.00    0.00      -0.91   -3.53   -0.22
#  31    0.24   -1.12    0.23   -0.19   -0.08    0.00    0.00      -0.92   -0.40   -0.17
#  32    2.84   -1.35    0.46   -1.47   -0.09    0.00    0.00       0.39   -3.66   -0.22
#  33    0.21   -1.06    0.16    0.21   -0.16    0.00    0.00      -0.64    0.48   -0.38
#  34    2.83   -1.71    0.21   -1.51   -0.18    0.00    0.00      -0.36   -2.91   -0.35
#  35   -1.37   -2.68    0.64    0.64   -0.55    0.00    0.00      -3.32    1.08   -0.93
#  36   10.76   -2.90    1.04   -4.30    0.67    0.00    0.00       5.27   -7.50    1.17
#  37   -1.08   -2.05    0.83    0.12   -0.40    0.00    0.00      -2.58    0.23   -0.78
#  38    0.99   -1.97    0.39   -0.59   -0.28    0.00    0.00      -1.46   -1.03   -0.48
#  39    0.70   -1.68    0.17   -0.47   -0.26    0.00    0.00      -1.53   -0.84   -0.47
#  40    0.70   -1.59    0.22   -0.56   -0.20    0.00    0.00      -1.44   -1.29   -0.47
#  41    0.44   -1.45    0.19   -0.29   -0.18    0.00    0.00      -1.28   -0.78   -0.47
#  42    1.03   -1.62    0.34   -0.61   -0.19    0.00    0.00      -1.05   -1.45   -0.44
#  43    1.90   -0.35    0.01   -0.71   -0.04    0.00    0.00       0.82   -3.72   -0.21
#  44    0.98   -0.34    0.02   -0.43   -0.04    0.00    0.00       0.19   -2.44   -0.24
#  45   -0.13   -0.07    0.00    0.07   -0.02    0.00    0.00      -0.15    0.80   -0.28
#  46   -0.10   -0.01    0.00    0.03   -0.01    0.00    0.00      -0.08    1.64   -0.28
#  47   -0.10   -0.01    0.00    0.03   -0.01    0.00    0.00      -0.08    1.63   -0.28
#  48   -0.12   -0.02    0.00    0.02   -0.01    0.00    0.00      -0.13    0.70   -0.28
#  49   -4.90   -0.55    0.20    1.89   -0.09    0.00    0.00      -3.44    5.30   -0.26
#  50   -0.38   -0.64    0.46    0.17   -0.06    0.00    0.00      -0.45    0.49   -0.17
#  51   -0.45   -0.64    0.38    0.65   -0.14    0.00    0.00      -0.20    1.32   -0.28
#  52   -0.33   -0.48    0.13    0.61   -0.11    0.00    0.00      -0.18    1.51   -0.28
#  53   -0.22   -0.09    0.00    0.11   -0.02    0.00    0.00      -0.22    1.38   -0.28
#  54   -0.22   -0.04    0.00    0.02   -0.01    0.00    0.00      -0.25    0.52   -0.28
#  55   -4.26   -0.03    0.00    1.82    0.09    0.00    0.00      -2.39    8.26    0.39
#  56   -0.45   -0.08    0.00   -0.02   -0.02    0.00    0.00      -0.57   -0.21   -0.26
#  57   -1.26   -0.22    0.03   -0.09   -0.06    0.00    0.00      -1.59   -0.46   -0.28
#  58   -1.69   -0.15    0.01    0.20   -0.04    0.00    0.00      -1.67    1.27   -0.28
#  59   -2.00   -0.42    0.18    0.38   -0.07    0.00    0.00      -1.93    1.31   -0.26
#  60   -1.96   -0.37    0.06    0.47   -0.09    0.00    0.00      -1.88    1.50   -0.28
#  61   -1.97   -0.13    0.00    0.44   -0.03    0.00    0.00      -1.69    3.74   -0.22
#  62   -5.75   -0.48    0.38    1.66   -0.08    0.00    0.00      -4.28    5.93   -0.28
#  63   -4.27   -0.35    0.04    1.79   -0.10    0.00    0.00      -2.89    5.04   -0.28
#  64   -2.96   -0.87    0.88    1.77   -0.11    0.00    0.00      -1.30    4.54   -0.28
#  65   -2.23   -0.25    0.02    1.54   -0.06    0.00    0.00      -0.99    5.29   -0.21
#  66   -1.38   -0.62    0.28    0.66   -0.13    0.00    0.00      -1.19    1.43   -0.28
#  67   -0.56   -0.35    0.06    0.96   -0.08    0.00    0.00       0.03    3.35   -0.27
#  68   -1.48   -0.86    1.89    0.71   -0.12    0.00    0.00       0.15    1.71   -0.28
#  69   -2.54   -1.35    2.20    0.64   -0.12    0.00    0.00      -1.18    1.49   -0.28
#  70   -1.40   -0.30    0.07    0.69   -0.06    0.00    0.00      -0.99    3.36   -0.27
#  71   -5.16   -0.51    0.31    2.10   -0.10    0.00    0.00      -3.36    5.94   -0.28
#  72   -4.03   -0.48    0.16    2.13   -0.13    0.00    0.00      -2.35    4.55   -0.28
#  73   -4.00   -0.81    0.25    3.49   -0.17    0.00    0.00      -1.25    5.77   -0.28
#  74   -8.42   -0.07    0.00    3.33    0.33    0.00    0.00      -4.82    5.88    0.59
#  75   -0.62   -0.53    0.13    0.39   -0.15    0.00    0.00      -0.78    0.72   -0.28
#  76   -1.28   -0.41    0.06    0.33   -0.14    0.00    0.00      -1.45    0.65   -0.28
#  77   -0.48   -0.41    0.11    0.30   -0.09    0.00    0.00      -0.56    0.97   -0.28
#  78   -0.51   -0.25    0.03    0.48   -0.07    0.00    0.00      -0.32    2.03   -0.28
#  79   -1.54   -0.10    0.00    0.25   -0.02    0.00    0.00      -1.40    2.73   -0.22
#  80   -0.53   -0.15    0.02    0.56   -0.03    0.00    0.00      -0.12    4.73   -0.22
#  81   -0.61   -0.14    0.01    0.28   -0.04    0.00    0.00      -0.50    2.06   -0.28
#  82   -0.25   -0.09    0.01    0.11   -0.03    0.00    0.00      -0.26    1.13   -0.28

@<TRIPOS>MOLECULE
          T539925       100
   82    88     0     0     0



@<TRIPOS>ATOM
      1 Cl1         0.8569    -6.4207    85.3352 Cl         1          -0.0601
      2 C1          1.0817    -7.9772    86.0703 C.ar       1           0.0015
      3 C2          0.3086    -9.0497    85.6713 C.ar       1          -0.1080
      4 C3          0.4866   -10.2901    86.2566 C.ar       1          -0.0868
      5 C4          1.4395   -10.4661    87.2450 C.ar       1          -0.1100
      6 C5          2.2191    -9.4044    87.6534 C.ar       1          -0.0791
      7 C6          2.0494    -8.1498    87.0635 C.ar       1          -0.0304
      8 C7          2.8847    -7.0099    87.4914 C.2        1           0.2064
      9 C8          2.9674    -6.4779    88.7784 C.2        1          -0.2746
     10 C9          3.8831    -5.4055    88.7252 C.2        1           0.0801
     11 N1          4.3211    -5.2963    87.5011 N.2        1          -0.2732
     12 N2          3.7244    -6.2822    86.7073 N.pl3      1          -0.2931
     13 C10         3.9509    -6.4832    85.3401 C.ar       1           0.1335
     14 C11         4.2916    -5.4109    84.5261 C.ar       1          -0.1254
     15 C12         4.5144    -5.6124    83.1781 C.ar       1          -0.0970
     16 C13         4.3980    -6.8805    82.6386 C.ar       1          -0.1090
     17 C14         4.0583    -7.9502    83.4463 C.ar       1          -0.1011
     18 C15         3.8409    -7.7563    84.7964 C.ar       1          -0.1013
     19 C16         2.2373    -6.9460    89.9667 C.2        1           0.5971
     20 O1          1.9275    -8.1179    90.0677 O.2        1          -0.5232
     21 N3          1.9114    -6.0762    90.9434 N.am       1          -0.7272
     22 C17         1.1841    -6.5423    92.1267 C.3        1           0.1477
     23 C18         0.9416    -5.3647    93.0729 C.3        1          -0.1321
     24 C19         2.2845    -4.7698    93.5012 C.3        1          -0.1092
     25 C20         3.1104    -5.8391    94.2191 C.3        1          -0.1149
     26 C21         4.4533    -5.2442    94.6474 C.3        1          -0.0083
     27 N4          5.2463    -6.2709    95.3365 N.4        1          -0.3833
     28 H1          5.1331    -7.1552    94.8641 H          1           0.4189
     29 C22         4.7826    -6.3960    96.7235 C.3        1          -0.0123
     30 C23         5.5503    -7.5200    97.4226 C.3        1          -0.1378
     31 C24         7.0464    -7.1934    97.4104 C.3        1          -0.0148
     32 C25         7.5030    -6.9917    95.9626 C.3        1          -0.1388
     33 C26         6.6628    -5.8864    95.3192 C.3        1          -0.0072
     34 C27         7.8160    -8.3326    98.0276 C.2        1          -0.1859
     35 C28         8.6046    -8.2684    99.1121 C.2        1           0.0666
     36 N5          9.1362    -9.5014    99.3757 N.pl3      1          -0.5899
     37 C29         8.6912   -10.4120    98.4438 C.ar       1           0.0953
     38 C30         8.9158   -11.7712    98.2494 C.ar       1          -0.1258
     39 C31         8.3097   -12.4213    97.1971 C.ar       1          -0.0926
     40 C32         7.4753   -11.7337    96.3262 C.ar       1          -0.1359
     41 C33         7.2407   -10.3988    96.4984 C.ar       1          -0.0787
     42 C34         7.8402    -9.7212    97.5620 C.ar       1          -0.1001
     43 C35         3.3529    -7.0167    93.2728 C.3        1          -0.1299
     44 C36         2.0100    -7.6118    92.8445 C.3        1          -0.1264
     45 H2         -0.4368    -8.9196    84.9006 H          1           0.1402
     46 H3         -0.1212   -11.1254    85.9413 H          1           0.1393
     47 H4          1.5725   -11.4375    87.6978 H          1           0.1380
     48 H5          2.9621    -9.5437    88.4248 H          1           0.1326
     49 H6          4.1722    -4.7805    89.5571 H          1           0.1906
     50 H7          4.3821    -4.4202    84.9468 H          1           0.1337
     51 H8          4.7793    -4.7788    82.5445 H          1           0.1368
     52 H9          4.5723    -7.0357    81.5842 H          1           0.1344
     53 H10         3.9674    -8.9391    83.0219 H          1           0.1366
     54 H11         3.5806    -8.5931    85.4277 H          1           0.1344
     55 H12         2.1584    -5.1418    90.8629 H          1           0.3929
     56 H13         0.2274    -6.9663    91.8215 H          1           0.0969
     57 H14         0.3531    -4.6029    92.5616 H          1           0.0812
     58 H15         0.4005    -5.7117    93.9533 H          1           0.0764
     59 H16         2.8256    -4.4230    92.6208 H          1           0.0746
     60 H17         2.1117    -3.9308    94.1754 H          1           0.0746
     61 H18         2.5694    -6.1859    95.0995 H          1           0.0977
     62 H19         4.9944    -4.8973    93.7669 H          1           0.1308
     63 H20         4.2806    -4.4052    95.3215 H          1           0.1316
     64 H21         4.9548    -5.4571    97.2498 H          1           0.1299
     65 H22         3.7170    -6.6252    96.7307 H          1           0.1316
     66 H23         5.2057    -7.6100    98.4527 H          1           0.1133
     67 H24         5.3786    -8.4594    96.8972 H          1           0.0856
     68 H25         7.2248    -6.2809    97.9792 H          1           0.0935
     69 H26         8.5544    -6.7043    95.9493 H          1           0.1137
     70 H27         7.3718    -7.9203    95.4070 H          1           0.0860
     71 H28         6.9863    -5.7393    94.2887 H          1           0.1299
     72 H29         6.7938    -4.9586    95.8761 H          1           0.1297
     73 H30         8.7922    -7.3758    99.6903 H          1           0.1650
     74 H31         9.7371    -9.7037   100.1098 H          1           0.4207
     75 H32         9.5636   -12.3148    98.9213 H          1           0.1238
     76 H33         8.4856   -13.4762    97.0477 H          1           0.1303
     77 H34         7.0079   -12.2582    95.5058 H          1           0.1263
     78 H35         6.5904    -9.8705    95.8170 H          1           0.1194
     79 H36         3.8940    -6.6700    92.3925 H          1           0.0765
     80 H37         3.9413    -7.7785    93.7841 H          1           0.0616
     81 H38         1.4689    -7.9585    93.7248 H          1           0.0849
     82 H39         2.1828    -8.4507    92.1703 H          1           0.0814
@<TRIPOS>BOND
     1    1    2 1
     2    2    7 ar
     3    2    3 ar
     4    3    4 ar
     5    3   45 1
     6    4    5 ar
     7    4   46 1
     8    5    6 ar
     9    5   47 1
    10    6    7 ar
    11    6   48 1
    12    7    8 1
    13    8   12 1
    14    8    9 2
    15    9   10 1
    16    9   19 1
    17   10   11 2
    18   10   49 1
    19   11   12 1
    20   12   13 1
    21   13   18 ar
    22   13   14 ar
    23   14   15 ar
    24   14   50 1
    25   15   16 ar
    26   15   51 1
    27   16   17 ar
    28   16   52 1
    29   17   18 ar
    30   17   53 1
    31   18   54 1
    32   19   20 2
    33   19   21 am
    34   21   22 1
    35   21   55 1
    36   22   44 1
    37   22   23 1
    38   22   56 1
    39   23   24 1
    40   23   57 1
    41   23   58 1
    42   24   25 1
    43   24   59 1
    44   24   60 1
    45   25   26 1
    46   25   43 1
    47   25   61 1
    48   26   27 1
    49   26   62 1
    50   26   63 1
    51   27   28 1
    52   27   33 1
    53   27   29 1
    54   29   30 1
    55   29   64 1
    56   29   65 1
    57   30   31 1
    58   30   66 1
    59   30   67 1
    60   31   32 1
    61   31   34 1
    62   31   68 1
    63   32   33 1
    64   32   69 1
    65   32   70 1
    66   33   71 1
    67   33   72 1
    68   34   42 1
    69   34   35 2
    70   35   36 1
    71   35   73 1
    72   36   37 1
    73   36   74 1
    74   37   42 ar
    75   37   38 ar
    76   38   39 ar
    77   38   75 1
    78   39   40 ar
    79   39   76 1
    80   40   41 ar
    81   40   77 1
    82   41   42 ar
    83   41   78 1
    84   43   44 1
    85   43   79 1
    86   43   80 1
    87   44   81 1
    88   44   82 1
##########                 Name:              T538382
##########          Protonation:                   99
##########               SMILES:   C[C@@H](Cc1ccc(c(c1)Cl)OCc2ccccc2)[NH2+]C[C@H](c3cccc(c3)C(F)(F)F)O
##########            Long Name:   -1-methyl-ethyl]-[(2S)-2-hydroxy-2-[3-(trifluoromethyl)phenyl]ethyl]ammonium
##########          FlexRecCode: 1
##########               Number:                   31
##########   Ligand Source File: /raidb/db2/rgc/tcams/tcams-0001791.db2.gz
##########           GlobalRank: 413
##########                 Rank:                    1
##########               Setnum:                   84
##########             Matchnum:                 3440
##########                Cloud:                    1
##########        Electrostatic:           -37.619457
##########        Van der Waals:           -31.165756
##########  Ligand Polar Desolv:             8.069516
########## Ligand Apolar Desolv:            -3.375765
##########      Internal Energy:             0.000000
##########      Receptor Energy: 0.0
########## Receptor Desolvation:             0.000000
########## Receptor Hydrophobic:             0.000000
##########         Total Energy: -64.09
##########        Ligand Charge:             1.000000
##########            Arbitrary:    +999.9990
##########     heavy atom count:   32
##########           pose count:    1
##########        Ligand Energy:             0.000000
# num electro vdwattr vdwrepu polsolv apolsol rdesolv rhydroe totalscore fullpol fullapo
#   1    4.77   -1.28    0.24   -2.70   -0.08    0.00    0.00       0.95   -5.98   -0.18
#   2   -0.68   -0.57    0.02    0.71   -0.08    0.00    0.00      -0.60    2.20   -0.24
#   3    2.42   -0.93    0.16   -0.97   -0.07    0.00    0.00       0.61   -2.75   -0.21
#   4    3.20   -1.14    0.24   -0.66   -0.09    0.00    0.00       1.54   -2.41   -0.33
#   5    1.07   -0.64    0.06   -0.29   -0.08    0.00    0.00       0.12   -1.46   -0.38
#   6    0.87   -0.45    0.03   -0.57   -0.06    0.00    0.00      -0.18   -3.70   -0.42
#   7   -0.82   -0.48    0.04    0.17   -0.05    0.00    0.00      -1.15    0.98   -0.31
#   8    0.60   -0.23    0.00   -0.37    0.10    0.00    0.00       0.11   -3.10    0.84
#   9   -0.16   -0.35    0.02    0.23   -0.02    0.00    0.00      -0.27    1.21   -0.10
#  10    0.13   -0.46    0.01   -0.16   -0.08    0.00    0.00      -0.55   -0.82   -0.39
#  11    0.07   -0.96    0.07   -0.29   -0.17    0.00    0.00      -1.27   -0.78   -0.45
#  12    0.08   -1.44    0.29   -0.35   -0.19    0.00    0.00      -1.61   -0.85   -0.47
#  13    0.10   -1.08    0.25   -0.22   -0.14    0.00    0.00      -1.09   -0.72   -0.47
#  14    0.14   -0.40    0.02   -0.14   -0.08    0.00    0.00      -0.46   -0.78   -0.47
#  15    0.11   -0.26    0.00   -0.07   -0.04    0.00    0.00      -0.26   -0.75   -0.45
#  16    0.98   -0.95    0.14   -0.40   -0.08    0.00    0.00      -0.31   -1.53   -0.29
#  17    0.49   -2.16    0.52   -0.30   -0.26    0.00    0.00      -1.72   -1.10   -0.97
#  18    1.55   -1.76    0.58   -0.41   -0.14    0.00    0.00      -0.18   -1.31   -0.45
#  19   15.53   -0.90    0.11   -6.15    0.22    0.00    0.00       8.81  -17.50    0.62
#  20  -15.83   -0.02    0.00    3.00    0.08    0.00    0.00     -12.78   15.66    0.42
#  21  -15.49   -0.02    0.00    5.85    0.18    0.00    0.00      -9.49   17.69    0.53
#  22    0.98   -0.54    0.02   -0.29   -0.11    0.00    0.00       0.07   -0.99   -0.36
#  23   -3.31   -0.88    0.15    1.56   -0.05    0.00    0.00      -2.53    4.30   -0.14
#  24   18.64   -2.02    0.48   -7.90    0.80    0.00    0.00      10.00  -16.17    1.64
#  25    2.36   -1.59    0.40   -0.86   -0.13    0.00    0.00       0.17   -2.36   -0.35
#  26    1.33   -2.02    0.50   -0.60   -0.21    0.00    0.00      -1.00   -1.24   -0.44
#  27    1.86   -1.99    0.32   -1.22   -0.26    0.00    0.00      -1.28   -2.23   -0.47
#  28    0.69   -1.62    0.25   -0.70   -0.21    0.00    0.00      -1.59   -1.46   -0.44
#  29    1.67   -1.31    0.17   -0.95   -0.14    0.00    0.00      -0.56   -2.58   -0.37
#  30    0.56   -1.44    0.37   -0.41   -0.14    0.00    0.00      -1.06   -1.25   -0.44
#  31   -3.91   -0.76    0.05    1.53   -0.03    0.00    0.00      -3.12    3.47   -0.07
#  32    1.36   -0.75    0.04   -0.57   -0.25    0.00    0.00      -0.17   -1.02   -0.44
#  33    0.52   -1.07    0.18   -0.58   -0.21    0.00    0.00      -1.15   -1.34   -0.48
#  34    1.54   -0.66    0.09   -0.46   -0.18    0.00    0.00       0.34   -1.24   -0.48
#  35   -1.97   -0.36    0.06    1.17   -0.10    0.00    0.00      -1.20    3.39   -0.28
#  36   -3.16   -0.89    0.54    0.76   -0.11    0.00    0.00      -2.86    1.85   -0.28
#  37   -2.21   -0.36    0.05    1.29   -0.08    0.00    0.00      -1.30    3.33   -0.21
#  38   -2.47   -0.11    0.00    0.48   -0.03    0.00    0.00      -2.13    4.86   -0.28
#  39   -2.93   -0.27    0.03    0.76   -0.07    0.00    0.00      -2.48    2.94   -0.28
#  40   -3.41   -0.57    0.31    1.86   -0.11    0.00    0.00      -1.92    4.86   -0.28
#  41   -1.82   -0.11    0.00    0.77   -0.03    0.00    0.00      -1.18    7.05   -0.28
#  42   -0.27   -0.06    0.00    0.19   -0.01    0.00    0.00      -0.16    3.21   -0.22
#  43   -0.13   -0.26    0.06    0.27   -0.05    0.00    0.00      -0.12    1.27   -0.26
#  44   -0.12   -0.08    0.00    0.14   -0.02    0.00    0.00      -0.07    1.73   -0.27
#  45   -0.06   -0.31    0.04    0.54   -0.10    0.00    0.00       0.10    1.48   -0.28
#  46   -0.03   -0.50    0.14    0.48   -0.13    0.00    0.00      -0.04    1.01   -0.28
#  47   -0.14   -0.48    0.51    0.25   -0.09    0.00    0.00       0.05    0.79   -0.28
#  48   -0.16   -0.06    0.00    0.05   -0.02    0.00    0.00      -0.18    0.83   -0.28
#  49   -0.15   -0.03    0.00    0.04   -0.01    0.00    0.00      -0.15    1.08   -0.28
#  50   -7.03   -0.95    1.18    0.97   -0.10    0.00    0.00      -5.92    2.84   -0.28
#  51   -2.48   -0.19    0.01    1.23   -0.04    0.00    0.00      -1.47    6.64   -0.23
#  52   -1.71   -0.15    0.02    0.64   -0.03    0.00    0.00      -1.24    5.32   -0.28
#  53   -3.32   -0.28    0.07    0.98   -0.06    0.00    0.00      -2.62    4.43   -0.28
#  54  -18.64   -0.06    0.01    6.08    0.47    0.00    0.00     -12.15   13.12    1.01
#  55   -2.46   -0.65    0.69    2.41   -0.10    0.00    0.00      -0.10    5.99   -0.24
#  56   -3.13   -0.51    0.07    1.43   -0.15    0.00    0.00      -2.30    2.59   -0.28
#  57   -1.98   -0.34    0.06    0.30   -0.09    0.00    0.00      -2.05    0.85   -0.25
#  58   -1.23   -0.20    0.03    0.51   -0.05    0.00    0.00      -0.94    3.05   -0.28

@<TRIPOS>MOLECULE
          T538382        99
   58    60     0     0     0



@<TRIPOS>ATOM
      1 C1          2.8846    -5.0002    96.1044 C.3        1          -0.1838
      2 C2          3.2238    -5.5087    94.7017 C.3        1           0.0276
      3 C3          2.6091    -4.5740    93.6580 C.3        1          -0.0921
      4 C4          2.5053    -5.2939    92.3382 C.ar       1          -0.1597
      5 C5          1.3635    -6.0110    92.0311 C.ar       1          -0.0944
      6 C6          1.2654    -6.6721    90.8221 C.ar       1          -0.1915
      7 C7          2.3134    -6.6164    89.9150 C.ar       1           0.1594
      8 O1          2.2188    -7.2656    88.7247 O.3        1          -0.2893
      9 C8          1.6624    -6.5353    87.6297 C.3        1           0.1022
     10 C9          0.1693    -6.7373    87.5979 C.ar       1          -0.1090
     11 C10        -0.6521    -5.7441    87.0979 C.ar       1          -0.0933
     12 C11        -2.0216    -5.9294    87.0686 C.ar       1          -0.1216
     13 C12        -2.5697    -7.1079    87.5392 C.ar       1          -0.1012
     14 C13        -1.7484    -8.1014    88.0385 C.ar       1          -0.1206
     15 C14        -0.3785    -7.9179    88.0637 C.ar       1          -0.0924
     16 C15         3.4587    -5.8960    90.2251 C.ar       1          -0.0652
     17 Cl1         4.7726    -5.8230    89.0928 Cl         1          -0.0319
     18 C16         3.5494    -5.2316    91.4341 C.ar       1          -0.0567
     19 N1          4.6825    -5.5406    94.5319 N.4        1          -0.5058
     20 H1          4.9065    -5.5508    93.5481 H          1           0.4260
     21 H2          5.0891    -4.7230    94.9609 H          1           0.4291
     22 C17         5.2235    -6.7484    95.1697 C.3        1          -0.0482
     23 C18         6.7428    -6.7818    94.9928 C.3        1           0.1366
     24 O2          7.2710    -5.4649    95.1628 O.3        1          -0.5431
     25 C19         7.3482    -7.7025    96.0207 C.ar       1          -0.1422
     26 C20         7.7345    -7.2056    97.2517 C.ar       1          -0.0756
     27 C21         8.2897    -8.0501    98.1945 C.ar       1          -0.1082
     28 C22         8.4583    -9.3919    97.9069 C.ar       1          -0.0521
     29 C23         8.0713    -9.8888    96.6766 C.ar       1          -0.1721
     30 C24         7.5119    -9.0449    95.7350 C.ar       1          -0.0512
     31 C25         8.2555   -11.3512    96.3628 C.3        1           0.5062
     32 F1          8.8321   -11.9951    97.4629 F          1          -0.1706
     33 F2          7.0121   -11.9285    96.0836 F          1          -0.1739
     34 F3          9.0933   -11.4876    95.2507 F          1          -0.1718
     35 H3          3.3225    -5.6661    96.8479 H          1           0.0849
     36 H4          3.2875    -3.9957    96.2340 H          1           0.1097
     37 H5          1.8022    -4.9765    96.2304 H          1           0.0820
     38 H6          2.8208    -6.5131    94.5721 H          1           0.1419
     39 H7          1.6151    -4.2685    93.9844 H          1           0.1237
     40 H8          3.2404    -3.6930    93.5426 H          1           0.1008
     41 H9          0.5478    -6.0546    92.7376 H          1           0.1315
     42 H10         0.3734    -7.2323    90.5833 H          1           0.1459
     43 H11         1.8830    -5.4747    87.7508 H          1           0.0773
     44 H12         2.0972    -6.8925    86.6962 H          1           0.0758
     45 H13        -0.2237    -4.8234    86.7302 H          1           0.1228
     46 H14        -2.6633    -5.1532    86.6785 H          1           0.1284
     47 H15        -3.6399    -7.2525    87.5171 H          1           0.1285
     48 H16        -2.1768    -9.0220    88.4064 H          1           0.1290
     49 H17         0.2635    -8.6955    88.4504 H          1           0.1243
     50 H18         4.4382    -4.6669    91.6744 H          1           0.1465
     51 H19         4.9814    -6.7375    96.2324 H          1           0.1416
     52 H20         4.7841    -7.6318    94.7062 H          1           0.1457
     53 H21         6.9844    -7.1439    93.9934 H          1           0.1327
     54 H22         6.9246    -4.8179    94.5332 H          1           0.3892
     55 H23         7.6027    -6.1575    97.4765 H          1           0.1338
     56 H24         8.5921    -7.6618    99.1558 H          1           0.1464
     57 H25         8.8928   -10.0516    98.6432 H          1           0.1490
     58 H26         7.2061    -9.4339    94.7751 H          1           0.1393
@<TRIPOS>BOND
     1    1    2 1
     2    1   35 1
     3    1   36 1
     4    1   37 1
     5    2    3 1
     6    2   19 1
     7    2   38 1
     8    3    4 1
     9    3   39 1
    10    3   40 1
    11    4   18 ar
    12    4    5 ar
    13    5    6 ar
    14    5   41 1
    15    6    7 ar
    16    6   42 1
    17    7    8 1
    18    7   16 ar
    19    8    9 1
    20    9   10 1
    21    9   43 1
    22    9   44 1
    23   10   15 ar
    24   10   11 ar
    25   11   12 ar
    26   11   45 1
    27   12   13 ar
    28   12   46 1
    29   13   14 ar
    30   13   47 1
    31   14   15 ar
    32   14   48 1
    33   15   49 1
    34   16   17 1
    35   16   18 ar
    36   18   50 1
    37   19   20 1
    38   19   21 1
    39   19   22 1
    40   22   23 1
    41   22   51 1
    42   22   52 1
    43   23   24 1
    44   23   25 1
    45   23   53 1
    46   24   54 1
    47   25   30 ar
    48   25   26 ar
    49   26   27 ar
    50   26   55 1
    51   27   28 ar
    52   27   56 1
    53   28   29 ar
    54   28   57 1
    55   29   30 ar
    56   29   31 1
    57   30   58 1
    58   31   32 1
    59   31   33 1
    60   31   34 1
##########                 Name:              T540057
##########          Protonation:                   98
##########               SMILES:   c1cc(ccc1/[NH+]=C(/N2CCC[NH+](CC2)CCCCCNC(=O)/C=C/c3ccc(c(c3)Cl)Cl)\[S-])Cl
##########            Long Name:   orophenyl)prop-2-enoyl]amino]pentyl]-1,4-diazepan-4-ium-1-yl]methanethiolate
##########          FlexRecCode: 1
##########               Number:                  288
##########   Ligand Source File: /raidb/db2/rgc/tcams/tcams-0001973.db2.gz
##########           GlobalRank: 414
##########                 Rank:                    1
##########               Setnum:                  253
##########             Matchnum:                 4968
##########                Cloud:                    1
##########        Electrostatic:           -32.578445
##########        Van der Waals:           -34.103153
##########  Ligand Polar Desolv:             7.794750
########## Ligand Apolar Desolv:            -5.193280
##########      Internal Energy:             0.000000
##########      Receptor Energy: 0.0
########## Receptor Desolvation:             0.000000
########## Receptor Hydrophobic:             0.000000
##########         Total Energy: -64.08
##########        Ligand Charge:             1.000000
##########            Arbitrary:    +999.9990
##########     heavy atom count:   35
##########           pose count:    1
##########        Ligand Energy:             0.000000
# num electro vdwattr vdwrepu polsolv apolsol rdesolv rhydroe totalscore fullpol fullapo
#   1    4.72   -3.14    1.19   -3.23   -0.36    0.00    0.00      -0.82   -7.74   -0.87
#   2  -10.25   -1.08    0.08    3.55   -0.65    0.00    0.00      -8.35    9.92   -1.81
#   3   13.55   -1.17    0.12   -4.13    0.40    0.00    0.00       8.77  -10.59    1.02
#   4  -11.45   -0.02    0.00    3.04    0.14    0.00    0.00      -8.30    9.40    0.43
#   5   -1.76   -1.10    0.07    0.68   -0.24    0.00    0.00      -2.35    1.79   -0.64
#   6    1.66   -1.55    0.19   -0.61   -0.22    0.00    0.00      -0.52   -1.27   -0.46
#   7    1.34   -1.63    0.23   -0.51   -0.23    0.00    0.00      -0.80   -1.03   -0.46
#   8    0.22   -1.50    0.25   -0.18   -0.12    0.00    0.00      -1.33   -0.47   -0.30
#   9    0.42   -3.03    0.73   -0.26   -0.52    0.00    0.00      -2.66   -0.50   -0.99
#  10    0.47   -1.48    0.25   -0.32   -0.16    0.00    0.00      -1.24   -0.90   -0.46
#  11    0.53   -1.24    0.23   -0.21   -0.12    0.00    0.00      -0.80   -0.65   -0.37
#  12   15.83   -1.28    0.10   -5.07    0.47    0.00    0.00      10.06  -12.83    1.20
#  13   -3.15   -1.25    0.24    0.74   -0.20    0.00    0.00      -3.62    1.65   -0.46
#  14    5.63   -1.41    0.50   -1.71   -0.09    0.00    0.00       2.92   -4.51   -0.24
#  15    0.36   -1.33    0.64   -0.19   -0.13    0.00    0.00      -0.65   -0.54   -0.36
#  16    7.47   -0.64    0.03   -3.31    0.05    0.00    0.00       3.59  -11.66    0.18
#  17   -7.05   -0.01    0.00    1.44    0.04    0.00    0.00      -5.58   17.58    0.46
#  18    0.35   -0.53    0.03   -0.03   -0.10    0.00    0.00      -0.27   -0.09   -0.34
#  19    1.14   -0.39    0.03   -0.87   -0.04    0.00    0.00      -0.13   -4.22   -0.20
#  20    0.63   -0.52    0.06   -0.82   -0.06    0.00    0.00      -0.71   -3.06   -0.22
#  21    0.20   -0.29    0.01   -0.49   -0.04    0.00    0.00      -0.62   -2.45   -0.22
#  22   -0.17   -0.49    0.05    0.39   -0.12    0.00    0.00      -0.33    1.43   -0.43
#  23    0.79   -0.53    0.04   -2.08    0.51    0.00    0.00      -1.29   -9.60    2.33
#  24   -0.45   -1.12    0.37    1.22   -0.18    0.00    0.00      -0.15    4.45   -0.65
#  25    0.30   -1.29    0.24   -0.59    0.17    0.00    0.00      -1.18   -1.40    0.39
#  26    0.18   -1.81    1.74   -0.50   -0.11    0.00    0.00      -0.50   -1.95   -0.43
#  27    0.01   -1.46    0.70   -0.11   -0.11    0.00    0.00      -0.97   -0.44   -0.44
#  28    0.07   -1.30    0.56   -0.10   -0.10    0.00    0.00      -0.87   -0.42   -0.41
#  29    0.10   -0.89    0.21   -0.16   -0.09    0.00    0.00      -0.83   -0.74   -0.44
#  30    0.08   -0.78    0.08   -0.20   -0.11    0.00    0.00      -0.92   -0.87   -0.46
#  31    0.01   -0.73    0.08   -0.07   -0.07    0.00    0.00      -0.77   -0.31   -0.30
#  32    0.01   -1.82    0.57   -0.07   -0.25    0.00    0.00      -1.56   -0.27   -0.95
#  33    0.02   -0.69    0.05   -0.06   -0.07    0.00    0.00      -0.74   -0.27   -0.30
#  34    0.02   -0.87    0.06   -0.04   -0.16    0.00    0.00      -0.99   -0.21   -0.95
#  35    0.06   -1.18    0.29   -0.15   -0.12    0.00    0.00      -1.10   -0.58   -0.45
#  36    1.11   -0.81    0.08   -0.10   -0.15    0.00    0.00       0.13   -0.25   -0.39
#  37   -2.54   -1.38    0.34    0.81   -0.18    0.00    0.00      -2.95    1.80   -0.40
#  38   -2.23   -0.52    0.32    1.15   -0.12    0.00    0.00      -1.39    2.75   -0.28
#  39   -2.47   -0.35    0.04    0.55   -0.12    0.00    0.00      -2.36    1.26   -0.28
#  40   -0.16   -0.36    0.09    0.22   -0.07    0.00    0.00      -0.29    0.81   -0.28
#  41   -0.71   -0.26    0.09    0.26   -0.03    0.00    0.00      -0.65    1.54   -0.17
#  42   -3.71   -0.60    0.14    1.27   -0.10    0.00    0.00      -3.00    2.55   -0.20
#  43   -4.48   -0.52    0.42    0.99   -0.10    0.00    0.00      -3.69    2.82   -0.28
#  44   -6.85   -1.36    2.24    2.02   -0.12    0.00    0.00      -4.06    4.84   -0.28
#  45   -2.94   -0.20    0.02    0.96   -0.05    0.00    0.00      -2.20    5.33   -0.25
#  46   -3.29   -0.62    0.37    1.10   -0.09    0.00    0.00      -2.53    2.90   -0.24
#  47   -2.14   -0.85    1.15    1.96   -0.06    0.00    0.00       0.06    6.42   -0.20
#  48   -3.05   -0.21    0.03    1.09   -0.06    0.00    0.00      -2.19    5.15   -0.26
#  49   -2.39   -0.20    0.01    0.81   -0.06    0.00    0.00      -1.81    3.89   -0.28
#  50   -0.55   -0.19    0.06    0.57   -0.03    0.00    0.00      -0.15    3.91   -0.21
#  51   -0.37   -0.07    0.00    0.28   -0.02    0.00    0.00      -0.18    4.06   -0.28
#  52   -0.64   -0.36    0.21    0.29   -0.06    0.00    0.00      -0.55    1.41   -0.28
#  53   -0.63   -0.22    0.03    0.32   -0.07    0.00    0.00      -0.57    1.32   -0.28
#  54   -0.10   -0.08    0.00    0.20   -0.02    0.00    0.00      -0.01    2.26   -0.28
#  55   -0.12   -0.05    0.00    0.11   -0.01    0.00    0.00      -0.07    2.23   -0.28
#  56   -0.13   -0.21    0.05    0.07   -0.06    0.00    0.00      -0.29    0.31   -0.28
#  57   -0.08   -0.27    0.07    0.08   -0.08    0.00    0.00      -0.27    0.31   -0.28
#  58   -0.43    0.00    0.00    0.57    0.04    0.00    0.00       0.17    8.12    0.56
#  59   -0.10   -0.51    0.61    0.81   -0.05    0.00    0.00       0.76    3.52   -0.21
#  60   -0.17   -0.24    0.08    0.10   -0.05    0.00    0.00      -0.28    0.51   -0.26
#  61   -0.19   -0.12    0.01    0.37   -0.02    0.00    0.00       0.05    3.59   -0.21
#  62   -0.12   -0.16    0.02    0.33   -0.04    0.00    0.00       0.02    2.18   -0.28
#  63   -0.11   -0.47    0.39    0.22   -0.07    0.00    0.00      -0.05    0.87   -0.28
#  64   -3.98   -0.37    0.08    0.80   -0.09    0.00    0.00      -3.56    2.58   -0.28
#  65   -3.92   -0.24    0.03    1.41   -0.06    0.00    0.00      -2.77    6.24   -0.26
#  66   -2.83   -0.49    0.10    2.53   -0.13    0.00    0.00      -0.82    5.61   -0.28
#  67   -4.15   -1.20    1.81    0.66   -0.09    0.00    0.00      -2.97    1.56   -0.21

@<TRIPOS>MOLECULE
          T540057        98
   67    69     0     0     0



@<TRIPOS>ATOM
      1 S1          3.4447    -7.5652    96.5553 S.3        1          -0.5135
      2 C1          4.3578    -6.3123    95.9619 C.cat      1           0.5133
      3 N1          5.7231    -6.3921    95.9814 N.pl3      1          -0.6308
      4 H1          6.2576    -5.6234    95.7278 H          1           0.4065
      5 C2          6.3491    -7.5828    96.3672 C.ar       1           0.1194
      6 C3          7.1979    -7.5981    97.4662 C.ar       1          -0.1082
      7 C4          7.8140    -8.7746    97.8452 C.ar       1          -0.0983
      8 C5          7.5865    -9.9375    97.1305 C.ar       1          -0.0255
      9 Cl1         8.3629   -11.4147    97.6091 Cl         1          -0.0537
     10 C6          6.7407    -9.9252    96.0353 C.ar       1          -0.0976
     11 C7          6.1179    -8.7525    95.6552 C.ar       1          -0.0685
     12 N2          3.7452    -5.2035    95.4488 N.pl3      1          -0.5942
     13 C8          4.3796    -4.4084    94.3625 C.3        1           0.0834
     14 C9          3.7837    -4.5860    93.0314 C.3        1          -0.1533
     15 C10         2.2626    -4.3199    93.1127 C.3        1          -0.0153
     16 N3          1.5263    -5.4095    93.6756 N.4        1          -0.3670
     17 H2          2.0330    -6.2614    93.4869 H          1           0.4173
     18 C11         0.2313    -5.4901    92.9869 C.3        1          -0.0200
     19 C12         0.4112    -6.2011    91.6442 C.3        1          -0.1474
     20 C13        -0.9376    -6.2851    90.9268 C.3        1          -0.1157
     21 C14        -0.7577    -6.9961    89.5841 C.3        1          -0.1321
     22 C15        -2.1066    -7.0801    88.8668 C.3        1           0.1173
     23 N4         -1.9343    -7.7610    87.5811 N.am       1          -0.7316
     24 C16        -1.6450    -7.0479    86.4744 C.2        1           0.5492
     25 O1         -1.5269    -5.8388    86.5433 O.2        1          -0.5369
     26 C17        -1.4730    -7.7282    85.1897 C.2        1          -0.2148
     27 C18        -0.3009    -7.6355    84.5293 C.2        1          -0.0082
     28 C19        -0.1280    -8.3193    83.2378 C.ar       1          -0.0650
     29 C20         1.1557    -8.5877    82.7511 C.ar       1          -0.0859
     30 C21         1.3106    -9.2289    81.5410 C.ar       1          -0.0994
     31 C22         0.1990    -9.6079    80.8063 C.ar       1          -0.0207
     32 Cl2         0.4040   -10.4156    79.2833 Cl         1          -0.0366
     33 C23        -1.0766    -9.3454    81.2820 C.ar       1          -0.0337
     34 Cl3        -2.4629    -9.8251    80.3536 Cl         1          -0.0359
     35 C24        -1.2464    -8.7091    82.4943 C.ar       1          -0.0728
     36 C25         1.2634    -5.3397    95.1523 C.3        1          -0.0431
     37 C26         2.4735    -4.7734    95.9331 C.3        1           0.0968
     38 H3          7.3764    -6.6905    98.0239 H          1           0.1350
     39 H4          8.4742    -8.7870    98.6997 H          1           0.1435
     40 H5          6.5648   -10.8342    95.4792 H          1           0.1424
     41 H6          5.4552    -8.7443    94.8027 H          1           0.1456
     42 H7          4.3154    -3.3532    94.6282 H          1           0.0934
     43 H8          5.4325    -4.6847    94.3058 H          1           0.1005
     44 H9          4.2393    -3.8854    92.3317 H          1           0.1298
     45 H10         3.9572    -5.6058    92.6877 H          1           0.0972
     46 H11         2.0955    -3.4328    93.7238 H          1           0.1271
     47 H12         1.8876    -4.1273    92.1075 H          1           0.1427
     48 H13        -0.4734    -6.0494    93.6025 H          1           0.1369
     49 H14        -0.1532    -4.4844    92.8170 H          1           0.1318
     50 H15         1.1159    -5.6420    91.0286 H          1           0.0869
     51 H16         0.7956    -7.2069    91.8142 H          1           0.0902
     52 H17        -1.6424    -6.8441    91.5424 H          1           0.0809
     53 H18        -1.3220    -5.2795    90.7568 H          1           0.0790
     54 H19        -0.0530    -6.4371    88.9684 H          1           0.0737
     55 H20        -0.3734    -8.0019    89.7541 H          1           0.0751
     56 H21        -2.8113    -7.6392    89.4824 H          1           0.0708
     57 H22        -2.4910    -6.0745    88.6967 H          1           0.0702
     58 H23        -2.0284    -8.7248    87.5261 H          1           0.4022
     59 H24        -2.2847    -8.3044    84.7708 H          1           0.1322
     60 H25         0.5109    -7.0594    84.9483 H          1           0.1428
     61 H26         2.0235    -8.2927    83.3222 H          1           0.1427
     62 H27         2.3015    -9.4362    81.1642 H          1           0.1485
     63 H28        -2.2404    -8.5090    82.8661 H          1           0.1504
     64 H29         0.3978    -4.7009    95.3274 H          1           0.1364
     65 H30         1.0438    -6.3420    95.5200 H          1           0.1524
     66 H31         2.3794    -5.0760    96.9760 H          1           0.1069
     67 H32         2.4352    -3.6849    95.8871 H          1           0.1552
@<TRIPOS>BOND
     1    1    2 1
     2    2    3 2
     3    2   12 1
     4    3    4 1
     5    3    5 1
     6    5   11 ar
     7    5    6 ar
     8    6    7 ar
     9    6   38 1
    10    7    8 ar
    11    7   39 1
    12    8    9 1
    13    8   10 ar
    14   10   11 ar
    15   10   40 1
    16   11   41 1
    17   12   37 1
    18   12   13 1
    19   13   14 1
    20   13   42 1
    21   13   43 1
    22   14   15 1
    23   14   44 1
    24   14   45 1
    25   15   16 1
    26   15   46 1
    27   15   47 1
    28   16   17 1
    29   16   18 1
    30   16   36 1
    31   18   19 1
    32   18   48 1
    33   18   49 1
    34   19   20 1
    35   19   50 1
    36   19   51 1
    37   20   21 1
    38   20   52 1
    39   20   53 1
    40   21   22 1
    41   21   54 1
    42   21   55 1
    43   22   23 1
    44   22   56 1
    45   22   57 1
    46   23   24 am
    47   23   58 1
    48   24   25 2
    49   24   26 1
    50   26   27 2
    51   26   59 1
    52   27   28 1
    53   27   60 1
    54   28   35 ar
    55   28   29 ar
    56   29   30 ar
    57   29   61 1
    58   30   31 ar
    59   30   62 1
    60   31   32 1
    61   31   33 ar
    62   33   34 1
    63   33   35 ar
    64   35   63 1
    65   36   37 1
    66   36   64 1
    67   36   65 1
    68   37   66 1
    69   37   67 1
##########                 Name:              T526160
##########          Protonation:                   94
##########               SMILES:   c1cc(c(cc1/C=C\C(=O)NCCCCC[NH+]2CCCN(CC2)C(=O)Nc3cc(nc(c3)Cl)Cl)Cl)Cl
##########            Long Name:   yl]amino]pentyl]-N-(2,6-dichloro-4-pyridyl)-1,4-diazepan-4-ium-1-carboxamide
##########          FlexRecCode: 1
##########               Number:                  294
##########   Ligand Source File: /raidb/db2/rgc/tcams/tcams-0000104.db2.gz
##########           GlobalRank: 416
##########                 Rank:                    1
##########               Setnum:                  257
##########             Matchnum:                 2970
##########                Cloud:                    1
##########        Electrostatic:           -33.760792
##########        Van der Waals:           -34.342644
##########  Ligand Polar Desolv:             7.817460
########## Ligand Apolar Desolv:            -3.772517
##########      Internal Energy:             0.000000
##########      Receptor Energy: 0.0
########## Receptor Desolvation:             0.000000
########## Receptor Hydrophobic:             0.000000
##########         Total Energy: -64.06
##########        Ligand Charge:             1.000000
##########            Arbitrary:    +999.9990
##########     heavy atom count:   36
##########           pose count:    1
##########        Ligand Energy:             0.000000
# num electro vdwattr vdwrepu polsolv apolsol rdesolv rhydroe totalscore fullpol fullapo
#   1   -0.03   -6.86    4.82   -0.14   -0.61    0.00    0.00      -2.82   -0.23   -0.99
#   2   -2.91   -1.91    0.55    0.50   -0.31    0.00    0.00      -4.09    1.01   -0.63
#   3    2.12   -1.47    0.18   -0.73   -0.19    0.00    0.00      -0.08   -1.72   -0.46
#   4   -1.45   -1.37    0.16    1.15   -0.24    0.00    0.00      -1.74    3.21   -0.67
#   5    3.32   -1.47    0.43   -3.67    0.53    0.00    0.00      -0.86  -11.63    1.67
#   6   -5.73   -1.31    0.38    3.78   -0.63    0.00    0.00      -3.52   12.21   -2.03
#   7    4.32   -1.60    0.27   -3.08    0.13    0.00    0.00       0.04   -7.68    0.32
#   8    9.83   -0.76    0.05   -3.65    0.36    0.00    0.00       5.83  -14.46    1.44
#   9   -2.09   -0.53    0.02    0.62   -0.14    0.00    0.00      -2.12    2.07   -0.46
#  10    5.55   -1.00    0.17   -1.85   -0.10    0.00    0.00       2.77   -4.58   -0.24
#  11    0.43   -1.17    0.32   -0.15   -0.13    0.00    0.00      -0.70   -0.43   -0.36
#  12   12.17   -1.30    0.54   -3.20    0.05    0.00    0.00       8.26  -11.56    0.18
#  13  -20.70   -0.08    0.01    4.67    0.12    0.00    0.00     -15.97   17.22    0.45
#  14    0.47   -0.91    0.20   -0.02   -0.10    0.00    0.00      -0.36   -0.07   -0.34
#  15    2.67   -0.64    0.08   -1.05   -0.05    0.00    0.00       1.02   -4.08   -0.20
#  16    0.37   -0.67    0.12   -0.75   -0.06    0.00    0.00      -0.99   -2.93   -0.22
#  17    0.26   -0.29    0.02   -0.41   -0.04    0.00    0.00      -0.47   -2.33   -0.22
#  18   -0.18   -0.39    0.03    0.30   -0.09    0.00    0.00      -0.33    1.46   -0.42
#  19    0.87   -0.35    0.01   -1.43    0.36    0.00    0.00      -0.55   -9.36    2.33
#  20   -0.55   -0.51    0.02    1.03   -0.13    0.00    0.00      -0.14    4.58   -0.59
#  21    0.45   -0.74    0.03   -0.82    0.10    0.00    0.00      -0.98   -2.33    0.29
#  22    0.22   -0.57    0.05   -0.49   -0.10    0.00    0.00      -0.89   -2.26   -0.45
#  23    0.02   -0.45    0.03   -0.10   -0.08    0.00    0.00      -0.59   -0.53   -0.44
#  24    0.10   -0.45    0.03   -0.05   -0.05    0.00    0.00      -0.43   -0.30   -0.31
#  25    0.04   -0.33    0.01   -0.02   -0.04    0.00    0.00      -0.35   -0.14   -0.29
#  26    0.06   -0.48    0.02   -0.03   -0.06    0.00    0.00      -0.49   -0.15   -0.30
#  27    0.04   -2.70    1.53   -0.04   -0.26    0.00    0.00      -1.43   -0.13   -0.95
#  28    0.05   -0.56    0.04   -0.04   -0.06    0.00    0.00      -0.58   -0.16   -0.29
#  29    0.48   -1.31    0.09   -0.03   -0.26    0.00    0.00      -1.03   -0.10   -0.95
#  30    0.51   -0.74    0.10   -0.11   -0.11    0.00    0.00      -0.36   -0.49   -0.46
#  31    0.20   -0.73    0.08   -0.15   -0.11    0.00    0.00      -0.71   -0.58   -0.45
#  32    0.89   -0.35    0.02   -0.08   -0.07    0.00    0.00       0.40   -0.45   -0.39
#  33   -2.14   -0.43    0.03    0.55   -0.10    0.00    0.00      -2.09    2.42   -0.42
#  34    0.74   -1.52    0.20   -0.51   -0.16    0.00    0.00      -1.24   -1.28   -0.40
#  35   -1.55   -1.57    0.23    0.35   -0.33    0.00    0.00      -2.87    0.68   -0.63
#  36    0.00   -4.53    1.35   -0.14   -0.59    0.00    0.00      -3.92   -0.24   -0.99
#  37    4.72   -1.90    0.58   -0.91    1.01    0.00    0.00       3.49   -1.74    1.92
#  38   -2.33   -0.24    0.01    0.96   -0.07    0.00    0.00      -1.67    3.59   -0.28
#  39   -1.34   -0.02    0.00    1.86    0.07    0.00    0.00       0.57   10.20    0.41
#  40   -1.69   -0.12    0.00    0.26   -0.02    0.00    0.00      -1.57    2.64   -0.20
#  41   -2.11   -0.21    0.01    0.49   -0.06    0.00    0.00      -1.88    2.35   -0.28
#  42   -4.43   -0.40    0.05    1.86   -0.11    0.00    0.00      -3.03    4.60   -0.28
#  43   -4.38   -0.58    0.62    1.71   -0.09    0.00    0.00      -2.72    4.92   -0.25
#  44   -3.05   -0.18    0.01    0.59   -0.04    0.00    0.00      -2.67    3.18   -0.24
#  45   -5.87   -0.96    1.15    2.49   -0.09    0.00    0.00      -3.29    6.11   -0.21
#  46   -1.63   -0.12    0.01    0.63   -0.03    0.00    0.00      -1.15    4.90   -0.27
#  47   -3.62   -0.79    0.68    1.47   -0.10    0.00    0.00      -2.37    3.94   -0.27
#  48   -2.79   -0.40    0.13    0.99   -0.05    0.00    0.00      -2.12    3.80   -0.21
#  49   -1.29   -0.07    0.00    0.27   -0.02    0.00    0.00      -1.11    3.92   -0.28
#  50   -0.24   -0.69    0.76    0.42   -0.09    0.00    0.00       0.16    1.28   -0.28
#  51   -0.25   -0.12    0.01    0.14   -0.03    0.00    0.00      -0.26    1.18   -0.28
#  52   -0.17   -0.03    0.00    0.08   -0.01    0.00    0.00      -0.14    2.10   -0.28
#  53   -0.15   -0.10    0.01    0.22   -0.03    0.00    0.00      -0.05    2.09   -0.28
#  54   -0.09   -0.29    0.08    0.05   -0.06    0.00    0.00      -0.32    0.21   -0.28
#  55   -0.12   -0.09    0.00    0.02   -0.03    0.00    0.00      -0.21    0.19   -0.28
#  56   -0.45    0.00    0.00    0.30    0.02    0.00    0.00      -0.13    7.59    0.56
#  57   -0.12   -0.22    0.06    0.69   -0.06    0.00    0.00       0.35    3.49   -0.28
#  58   -0.19   -0.09    0.01    0.30   -0.03    0.00    0.00       0.00    2.82   -0.28
#  59   -0.15   -0.04    0.00    0.03   -0.01    0.00    0.00      -0.18    0.61   -0.25
#  60   -1.77   -0.15    0.01    0.13   -0.04    0.00    0.00      -1.82    0.92   -0.28
#  61   -0.40   -0.19    0.02    0.45   -0.07    0.00    0.00      -0.18    1.88   -0.28
#  62   -1.65   -0.08    0.00    0.21   -0.02    0.00    0.00      -1.55    2.69   -0.28
#  63   -2.00   -0.06    0.00    0.34   -0.01    0.00    0.00      -1.73    6.06   -0.26
#  64   -3.10   -0.22    0.05    1.01   -0.05    0.00    0.00      -2.33    5.21   -0.28
#  65   -1.46   -0.11    0.01    0.14   -0.03    0.00    0.00      -1.46    1.23   -0.24
#  66   -0.44   -0.36    0.07    0.46   -0.06    0.00    0.00      -0.34    1.57   -0.22

@<TRIPOS>MOLECULE
          T526160        94
   66    68     0     0     0



@<TRIPOS>ATOM
      1 Cl1         9.0290    -8.5024    99.5561 Cl         1           0.0015
      2 C1          8.3579    -9.5069    98.3094 C.ar       1           0.2160
      3 C2          7.5160    -8.9520    97.3661 C.ar       1          -0.1811
      4 C3          6.9830    -9.7680    96.3699 C.ar       1           0.2224
      5 N1          6.1288    -9.2455    95.3980 N.am       1          -0.6733
      6 C4          5.3379    -8.1941    95.6907 C.2        1           0.7042
      7 O1          4.9371    -8.0328    96.8271 O.2        1          -0.5431
      8 N2          4.9912    -7.3218    94.7236 N.am       1          -0.6333
      9 C5          4.1259    -6.1514    95.0193 C.3        1           0.0937
     10 C6          4.4068    -4.8276    94.3487 C.3        1          -0.1569
     11 C7          3.7072    -4.8111    92.9740 C.3        1          -0.0125
     12 N3          4.3363    -5.6699    92.0387 N.4        1          -0.3665
     13 H1          5.2932    -5.3709    91.9244 H          1           0.4176
     14 C8          3.6518    -5.5302    90.7464 C.3        1          -0.0206
     15 C9          4.5687    -6.0276    89.6272 C.3        1          -0.1464
     16 C10         3.8558    -5.8820    88.2813 C.3        1          -0.1157
     17 C11         2.5698    -6.7109    88.2930 C.3        1          -0.1319
     18 C12         1.8570    -6.5654    86.9471 C.3        1           0.1183
     19 N4          0.6256    -7.3590    86.9583 N.am       1          -0.7309
     20 C13        -0.5299    -6.8042    87.3750 C.2        1           0.5380
     21 O2         -0.5504    -5.6439    87.7418 O.2        1          -0.5202
     22 C14        -1.7604    -7.5971    87.3862 C.2        1          -0.2152
     23 C15        -2.0970    -8.3039    88.4842 C.2        1          -0.0120
     24 C16        -1.3437    -8.1229    89.7353 C.ar       1          -0.0599
     25 C17        -0.6771    -9.2063    90.3170 C.ar       1          -0.0241
     26 C18         0.0274    -9.0291    91.4894 C.ar       1          -0.0384
     27 Cl2         0.8562   -10.3717    92.2134 Cl         1          -0.0530
     28 C19         0.0755    -7.7804    92.0908 C.ar       1          -0.0205
     29 Cl3         0.9645    -7.5655    93.5663 Cl         1          -0.0476
     30 C20        -0.5822    -6.7037    91.5192 C.ar       1          -0.1069
     31 C21        -1.2860    -6.8656    90.3450 C.ar       1          -0.0817
     32 C22         4.3351    -7.0877    92.4100 C.3        1          -0.0472
     33 C23         5.4665    -7.4947    93.3274 C.3        1           0.1138
     34 C24         7.3253   -11.1191    96.3686 C.ar       1          -0.1586
     35 C25         8.1739   -11.5976    97.3472 C.ar       1           0.2137
     36 Cl4         8.6087   -13.2783    97.3577 Cl         1           0.0001
     37 N5          8.6633   -10.7914    98.2719 N.ar       1          -0.4777
     38 H2          7.2735    -7.9001    97.4000 H          1           0.1585
     39 H3          6.1043    -9.6389    94.5118 H          1           0.4150
     40 H4          3.1023    -6.4319    94.7708 H          1           0.0924
     41 H5          4.1597    -5.9850    96.0960 H          1           0.0970
     42 H6          4.0212    -4.0157    94.9654 H          1           0.1290
     43 H7          5.4815    -4.7063    94.2141 H          1           0.0956
     44 H8          2.6715    -5.1260    93.1012 H          1           0.1283
     45 H9          3.7204    -3.7936    92.5835 H          1           0.1401
     46 H10         2.7356    -6.1207    90.7548 H          1           0.1352
     47 H11         3.4068    -4.4817    90.5766 H          1           0.1317
     48 H12         5.4849    -5.4370    89.6187 H          1           0.0874
     49 H13         4.8139    -7.0759    89.7971 H          1           0.0894
     50 H14         3.6108    -4.8335    88.1113 H          1           0.0798
     51 H15         4.5091    -6.2363    87.4838 H          1           0.0788
     52 H16         2.8148    -7.7593    88.4629 H          1           0.0738
     53 H17         1.9165    -6.3566    89.0904 H          1           0.0745
     54 H18         1.6120    -5.5169    86.7772 H          1           0.0696
     55 H19         2.5103    -6.9196    86.1497 H          1           0.0697
     56 H20         0.6418    -8.2837    86.6660 H          1           0.4011
     57 H21        -2.3985    -7.6161    86.5152 H          1           0.1384
     58 H22        -2.9195    -9.0027    88.4453 H          1           0.1472
     59 H23        -0.7143   -10.1792    89.8494 H          1           0.1301
     60 H24        -0.5403    -5.7339    91.9927 H          1           0.1442
     61 H25        -1.7948    -6.0241    89.8985 H          1           0.1398
     62 H26         3.3896    -7.3145    92.9027 H          1           0.1320
     63 H27         4.3966    -7.6831    91.4991 H          1           0.1479
     64 H28         6.3360    -6.8614    93.1512 H          1           0.1047
     65 H29         5.7279    -8.5383    93.1519 H          1           0.1352
     66 H30         6.9319   -11.7827    95.6128 H          1           0.1693
@<TRIPOS>BOND
     1    1    2 1
     2    2   37 ar
     3    2    3 ar
     4    3    4 ar
     5    3   38 1
     6    4    5 1
     7    4   34 ar
     8    5    6 am
     9    5   39 1
    10    6    7 2
    11    6    8 am
    12    8   33 1
    13    8    9 1
    14    9   10 1
    15    9   40 1
    16    9   41 1
    17   10   11 1
    18   10   42 1
    19   10   43 1
    20   11   12 1
    21   11   44 1
    22   11   45 1
    23   12   13 1
    24   12   14 1
    25   12   32 1
    26   14   15 1
    27   14   46 1
    28   14   47 1
    29   15   16 1
    30   15   48 1
    31   15   49 1
    32   16   17 1
    33   16   50 1
    34   16   51 1
    35   17   18 1
    36   17   52 1
    37   17   53 1
    38   18   19 1
    39   18   54 1
    40   18   55 1
    41   19   20 am
    42   19   56 1
    43   20   21 2
    44   20   22 1
    45   22   23 2
    46   22   57 1
    47   23   24 1
    48   23   58 1
    49   24   31 ar
    50   24   25 ar
    51   25   26 ar
    52   25   59 1
    53   26   27 1
    54   26   28 ar
    55   28   29 1
    56   28   30 ar
    57   30   31 ar
    58   30   60 1
    59   31   61 1
    60   32   33 1
    61   32   62 1
    62   32   63 1
    63   33   64 1
    64   33   65 1
    65   34   35 ar
    66   34   66 1
    67   35   36 1
    68   35   37 ar
##########                 Name:              T539290
##########          Protonation:                   90
##########               SMILES:   Cc1cc(c2cc([nH]c2c1)C[NH2+]CCC[NH+]=c3[nH]c4ccccc4[nH]3)C
##########            Long Name:   azol-2-ylidene-[3-[(4,6-dimethyl-1H-indol-2-yl)methylammonio]propyl]ammonium
##########          FlexRecCode: 1
##########               Number:                  119
##########   Ligand Source File: /raidb/db2/rgc/tcams/tcams-0001866.db2.gz
##########           GlobalRank: 416
##########                 Rank:                    1
##########               Setnum:                  262
##########             Matchnum:                  774
##########                Cloud:                    1
##########        Electrostatic:           -41.068535
##########        Van der Waals:           -25.904747
##########  Ligand Polar Desolv:             6.817772
########## Ligand Apolar Desolv:            -3.901505
##########      Internal Energy:             0.000000
##########      Receptor Energy: 0.0
########## Receptor Desolvation:             0.000000
########## Receptor Hydrophobic:             0.000000
##########         Total Energy: -64.06
##########        Ligand Charge:             2.000000
##########            Arbitrary:    +999.9990
##########     heavy atom count:   26
##########           pose count:    1
##########        Ligand Energy:             0.000000
# num electro vdwattr vdwrepu polsolv apolsol rdesolv rhydroe totalscore fullpol fullapo
#   1    0.44   -1.37    0.46   -0.58   -0.09    0.00    0.00      -1.14   -1.34   -0.20
#   2    0.08   -1.26    0.19   -0.56   -0.14    0.00    0.00      -1.70   -1.64   -0.40
#   3    0.64   -1.45    0.29   -0.86   -0.14    0.00    0.00      -1.53   -2.56   -0.43
#   4    0.13   -1.90    1.22   -0.36   -0.13    0.00    0.00      -1.04   -1.15   -0.40
#   5    3.91   -1.57    0.77   -0.65   -0.07    0.00    0.00       2.38   -1.76   -0.20
#   6    0.57   -1.60    0.68   -0.90   -0.12    0.00    0.00      -1.38   -3.20   -0.44
#   7    1.84   -1.43    0.33   -1.78   -0.14    0.00    0.00      -1.19   -6.06   -0.49
#   8    0.21   -0.86    0.12    0.81   -0.17    0.00    0.00       0.11    3.32   -0.71
#   9   -0.68   -0.45    0.06    0.97   -0.09    0.00    0.00      -0.17    4.73   -0.44
#  10   10.42   -0.66    0.07   -6.05    0.18    0.00    0.00       3.96  -25.03    0.73
#  11   -9.19   -0.01    0.00    2.45    0.06    0.00    0.00      -6.69   23.44    0.57
#  12  -13.09   -0.03    0.00    6.24    0.15    0.00    0.00      -6.72   23.22    0.57
#  13    0.11   -0.37    0.01    0.07   -0.08    0.00    0.00      -0.27    0.32   -0.40
#  14    3.84   -0.46    0.01   -2.23   -0.06    0.00    0.00       1.10   -8.33   -0.24
#  15   -1.94   -0.44    0.02    0.66   -0.09    0.00    0.00      -1.79    2.94   -0.41
#  16   14.08   -0.88    0.04   -8.57    0.53    0.00    0.00       5.20  -26.45    1.64
#  17  -11.72   -0.02    0.00    4.48    0.12    0.00    0.00      -7.13   21.06    0.57
#  18   -9.95   -0.98    0.06    9.45   -1.73    0.00    0.00      -3.15   27.02   -4.95
#  19    4.12   -1.24    0.24   -6.55    0.36    0.00    0.00      -3.07  -21.02    1.16
#  20   -0.54   -1.34    0.15    0.93   -0.27    0.00    0.00      -1.07    2.61   -0.77
#  21    0.42   -1.46    0.19   -1.03   -0.19    0.00    0.00      -2.07   -2.67   -0.48
#  22    0.56   -1.54    0.25   -1.60   -0.23    0.00    0.00      -2.56   -3.27   -0.47
#  23    0.81   -1.96    0.73   -1.64   -0.24    0.00    0.00      -2.30   -3.20   -0.47
#  24    1.23   -1.88    0.40   -1.56   -0.25    0.00    0.00      -2.06   -2.95   -0.48
#  25   -0.99   -1.43    0.16    0.96   -0.33    0.00    0.00      -1.63    2.24   -0.77
#  26    9.03   -1.37    0.14   -9.03    0.53    0.00    0.00      -0.71  -20.71    1.21
#  27    1.31   -0.77    0.10   -3.77    0.25    0.00    0.00      -2.88  -16.98    1.12
#  28   -0.35   -1.23    0.47    0.38   -0.19    0.00    0.00      -0.93    1.52   -0.78
#  29    0.37   -1.22    0.34   -0.70   -0.13    0.00    0.00      -1.33   -2.54   -0.46
#  30   -0.38   -1.34    3.07    0.31   -0.11    0.00    0.00       1.55    0.78   -0.28
#  31   -0.23   -0.32    0.07    0.11   -0.08    0.00    0.00      -0.45    0.38   -0.28
#  32   -0.22   -0.43    0.11    0.40   -0.12    0.00    0.00      -0.26    0.91   -0.28
#  33   -1.11   -0.42    0.20    0.18   -0.08    0.00    0.00      -1.23    0.67   -0.28
#  34   -3.15   -0.73    0.49    0.45   -0.09    0.00    0.00      -3.03    1.34   -0.28
#  35   -1.72   -0.18    0.01    0.39   -0.05    0.00    0.00      -1.56    1.94   -0.27
#  36   -3.34   -0.90    0.81    0.13   -0.12    0.00    0.00      -3.41    0.31   -0.28
#  37   -5.61   -0.47    0.23    1.71   -0.08    0.00    0.00      -4.22    6.16   -0.28
#  38   -0.72   -0.26    0.13    1.44   -0.04    0.00    0.00       0.56    9.14   -0.28
#  39   -0.83   -0.05    0.00    0.48   -0.01    0.00    0.00      -0.41    9.87   -0.28
#  40   -2.45   -0.13    0.01    1.16   -0.04    0.00    0.00      -1.45    9.05   -0.28
#  41   -1.51   -0.08    0.00    0.66   -0.02    0.00    0.00      -0.95    9.18   -0.28
#  42   -3.38   -0.21    0.01    1.34   -0.06    0.00    0.00      -2.30    5.98   -0.28
#  43   -2.25   -0.14    0.00    0.71   -0.03    0.00    0.00      -1.70    5.91   -0.28
#  44   -0.79   -0.18    0.04    0.84   -0.04    0.00    0.00      -0.12    6.41   -0.28
#  45   -2.79   -0.14    0.01    0.79   -0.03    0.00    0.00      -2.17    6.46   -0.28
#  46   -1.12   -0.02    0.00    3.53    0.10    0.00    0.00       2.48   19.58    0.56
#  47   -0.40   -0.32    0.05    1.33   -0.08    0.00    0.00       0.59    4.87   -0.28
#  48   -1.19   -0.28    0.02    1.12   -0.11    0.00    0.00      -0.44    2.77   -0.28
#  49   -1.84   -0.45    0.15    1.11   -0.13    0.00    0.00      -1.15    2.47   -0.28
#  50   -3.05   -0.43    0.06    1.97   -0.14    0.00    0.00      -1.59    3.84   -0.28
#  51   -7.70   -0.03    0.00    5.61    0.19    0.00    0.00      -1.93   17.40    0.59
#  52   -0.68   -0.01    0.00    1.58    0.06    0.00    0.00       0.95   15.19    0.59
#  53   -0.24   -0.19    0.02    0.45   -0.05    0.00    0.00      -0.01    2.38   -0.28

@<TRIPOS>MOLECULE
          T539290        90
   53    56     0     0     0



@<TRIPOS>ATOM
      1 C1          5.1773    -5.5270    83.6351 C.3        1          -0.1261
      2 C2          5.0886    -5.5235    85.1396 C.ar       1          -0.0221
      3 C3          6.2006    -5.1714    85.8926 C.ar       1          -0.1406
      4 C4          6.1397    -5.1619    87.2575 C.ar       1          -0.0180
      5 C5          7.3522    -4.7777    88.0658 C.3        1          -0.1215
      6 C6          4.9499    -5.5088    87.9007 C.ar       1          -0.1339
      7 C7          4.5416    -5.6037    89.3043 C.2        1          -0.1092
      8 C8          3.2568    -5.9924    89.3138 C.2        1          -0.0363
      9 C9          2.4300    -6.2174    90.5535 C.3        1           0.0747
     10 N1          3.2477    -5.9455    91.7433 N.4        1          -0.5119
     11 H1          4.0439    -6.5652    91.7530 H          1           0.4340
     12 H2          3.5665    -4.9884    91.7207 H          1           0.4285
     13 C10         2.4417    -6.1647    92.9517 C.3        1          -0.0062
     14 C11         3.2933    -5.8817    94.1909 C.3        1          -0.1682
     15 C12         4.5006    -6.8213    94.2057 C.3        1           0.0995
     16 N2          5.3160    -6.5503    95.3922 N.pl3      1          -0.6565
     17 H3          5.3426    -5.6566    95.7686 H          1           0.4443
     18 C13         6.0073    -7.5120    95.9433 C.cat      1           0.6648
     19 N3          6.0587    -8.8110    95.5055 N.pl3      1          -0.5779
     20 C14         6.9017    -9.5241    96.3570 C.ar       1           0.0769
     21 C15         7.3083   -10.8503    96.3854 C.ar       1          -0.0848
     22 C16         8.1711   -11.2851    97.3725 C.ar       1          -0.0741
     23 C17         8.6317   -10.4028    98.3343 C.ar       1          -0.0735
     24 C18         8.2319    -9.0808    98.3144 C.ar       1          -0.0835
     25 C19         7.3663    -8.6346    97.3263 C.ar       1           0.0800
     26 N4          6.8061    -7.3877    97.0517 N.pl3      1          -0.5770
     27 N5          2.8090    -6.1543    88.0309 N.pl3      1          -0.5922
     28 C20         3.8205    -5.8663    87.1423 C.ar       1           0.1331
     29 C21         3.9035    -5.8642    85.7535 C.ar       1          -0.1521
     30 H4          6.1817    -5.2339    83.3297 H          1           0.0809
     31 H5          4.9611    -6.5276    83.2608 H          1           0.0776
     32 H6          4.4532    -4.8220    83.2268 H          1           0.0729
     33 H7          7.1211    -4.9034    85.3955 H          1           0.1344
     34 H8          7.1119    -4.8288    89.1278 H          1           0.0771
     35 H9          8.1689    -5.4648    87.8446 H          1           0.0678
     36 H10         7.6526    -3.7618    87.8097 H          1           0.0766
     37 H11         5.1575    -5.4001    90.1677 H          1           0.1565
     38 H12         1.5698    -5.5481    90.5430 H          1           0.1413
     39 H13         2.0856    -7.2514    90.5778 H          1           0.1565
     40 H14         1.5816    -5.4953    92.9412 H          1           0.1411
     41 H15         2.0973    -7.1986    92.9761 H          1           0.1439
     42 H16         3.6378    -4.8480    94.1666 H          1           0.1094
     43 H17         2.6954    -6.0443    95.0876 H          1           0.1076
     44 H18         4.1562    -7.8552    94.2300 H          1           0.1059
     45 H19         5.0986    -6.6587    93.3089 H          1           0.1067
     46 H20         5.5891    -9.1713    94.7370 H          1           0.4541
     47 H21         6.9504   -11.5417    95.6370 H          1           0.1503
     48 H22         8.4873   -12.3174    97.3941 H          1           0.1576
     49 H23         9.3058   -10.7495    99.1036 H          1           0.1579
     50 H24         8.5929    -8.3954    99.0669 H          1           0.1515
     51 H25         6.9536    -6.5737    97.5583 H          1           0.4585
     52 H26         1.9125    -6.4308    87.7843 H          1           0.4165
     53 H27         3.0427    -6.1322    85.1587 H          1           0.1273
@<TRIPOS>BOND
     1    1    2 1
     2    1   30 1
     3    1   31 1
     4    1   32 1
     5    2   29 ar
     6    2    3 ar
     7    3    4 ar
     8    3   33 1
     9    4    5 1
    10    4    6 ar
    11    5   34 1
    12    5   35 1
    13    5   36 1
    14    6   28 ar
    15    6    7 1
    16    7    8 2
    17    7   37 1
    18    8    9 1
    19    8   27 1
    20    9   10 1
    21    9   38 1
    22    9   39 1
    23   10   11 1
    24   10   12 1
    25   10   13 1
    26   13   14 1
    27   13   40 1
    28   13   41 1
    29   14   15 1
    30   14   42 1
    31   14   43 1
    32   15   16 1
    33   15   44 1
    34   15   45 1
    35   16   17 1
    36   16   18 2
    37   18   26 1
    38   18   19 1
    39   19   20 1
    40   19   46 1
    41   20   25 ar
    42   20   21 ar
    43   21   22 ar
    44   21   47 1
    45   22   23 ar
    46   22   48 1
    47   23   24 ar
    48   23   49 1
    49   24   25 ar
    50   24   50 1
    51   25   26 1
    52   26   51 1
    53   27   28 1
    54   27   52 1
    55   28   29 ar
    56   29   53 1
##########                 Name:              T368869
##########          Protonation:                   99
##########               SMILES:   c1c(cc(c(c1)Cl)Cl)/C=C\C(=O)NCCCCC[NH+]2CC[C@@H](CC2)C(=O)Nc3cc(c(cc3)Cl)Cl
##########            Long Name:   -(3,4-dichlorophenyl)prop-2-enoyl]amino]pentyl]piperidin-1-ium-4-carboxamide
##########          FlexRecCode: 1
##########               Number:                  173
##########   Ligand Source File: /raidb/db2/rgc/tcams/tcams-0001158.db2.gz
##########           GlobalRank: 418
##########                 Rank:                    1
##########               Setnum:                   92
##########             Matchnum:                  154
##########                Cloud:                    1
##########        Electrostatic:           -37.250004
##########        Van der Waals:           -31.440748
##########  Ligand Polar Desolv:             8.107934
########## Ligand Apolar Desolv:            -3.467808
##########      Internal Energy:             0.000000
##########      Receptor Energy: 0.0
########## Receptor Desolvation:             0.000000
########## Receptor Hydrophobic:             0.000000
##########         Total Energy: -64.05
##########        Ligand Charge:             1.000000
##########            Arbitrary:    +999.9990
##########     heavy atom count:   35
##########           pose count:    1
##########        Ligand Energy:             0.000000
# num electro vdwattr vdwrepu polsolv apolsol rdesolv rhydroe totalscore fullpol fullapo
#   1    0.19   -5.60    2.94   -0.29   -0.58    0.00    0.00      -3.33   -0.48   -0.95
#   2    0.41   -1.95    0.72   -0.35   -0.16    0.00    0.00      -1.33   -0.66   -0.30
#   3    1.20   -2.36    0.85   -0.43   -0.25    0.00    0.00      -0.99   -0.79   -0.46
#   4    1.79   -1.90    0.28   -0.75   -0.22    0.00    0.00      -0.80   -1.37   -0.40
#   5   -1.82   -1.40    0.14    1.17   -0.28    0.00    0.00      -2.19    2.77   -0.67
#   6   10.19   -1.21    0.09   -5.18    0.66    0.00    0.00       4.54  -12.87    1.63
#   7   -6.42   -1.05    0.09    3.64   -0.16    0.00    0.00      -3.90   10.59   -0.47
#   8    1.04   -2.24    1.91   -3.12    0.09    0.00    0.00      -2.33   -9.50    0.26
#   9    2.55   -0.58    0.03   -0.89   -0.06    0.00    0.00       1.05   -2.79   -0.20
#  10    2.25   -0.57    0.03   -1.28   -0.08    0.00    0.00       0.36   -4.09   -0.24
#  11    0.28   -0.57    0.02   -0.10   -0.12    0.00    0.00      -0.48   -0.31   -0.38
#  12    9.69   -0.76    0.06   -3.24    0.08    0.00    0.00       5.83  -11.16    0.27
#  13  -10.53   -0.02    0.00    4.18    0.13    0.00    0.00      -6.23   16.78    0.54
#  14    0.17   -0.33    0.01    0.04   -0.07    0.00    0.00      -0.18    0.20   -0.35
#  15    1.48   -0.30    0.01   -0.69   -0.04    0.00    0.00       0.46   -3.79   -0.21
#  16    1.19   -0.50    0.06   -0.60   -0.05    0.00    0.00       0.10   -2.61   -0.22
#  17    1.52   -0.69    0.17   -0.59   -0.06    0.00    0.00       0.34   -2.10   -0.22
#  18   -1.49   -1.07    0.33    0.47   -0.15    0.00    0.00      -1.91    1.34   -0.42
#  19    2.02   -2.22    1.18   -3.11    0.86    0.00    0.00      -1.28   -8.44    2.33
#  20   -0.41   -1.84    1.14    1.53   -0.22    0.00    0.00       0.19    4.07   -0.59
#  21    0.66   -1.48    0.50   -0.65    0.11    0.00    0.00      -0.88   -1.79    0.29
#  22    0.11   -1.38    0.19   -0.94   -0.20    0.00    0.00      -2.22   -2.12   -0.45
#  23    0.01   -0.88    0.06   -0.16   -0.15    0.00    0.00      -1.11   -0.48   -0.44
#  24    0.07   -0.36    0.01   -0.04   -0.04    0.00    0.00      -0.37   -0.28   -0.30
#  25    0.04   -0.30    0.01   -0.02   -0.04    0.00    0.00      -0.30   -0.13   -0.30
#  26    0.05   -0.16    0.00   -0.01   -0.02    0.00    0.00      -0.13   -0.12   -0.30
#  27    0.20   -0.30    0.00   -0.01   -0.06    0.00    0.00      -0.16   -0.11   -0.95
#  28    0.02   -0.14    0.00   -0.01   -0.02    0.00    0.00      -0.14   -0.14   -0.30
#  29    0.03   -0.50    0.04   -0.01   -0.11    0.00    0.00      -0.54   -0.08   -0.95
#  30    0.12   -0.16    0.00   -0.03   -0.03    0.00    0.00      -0.10   -0.44   -0.46
#  31    0.10   -0.26    0.00   -0.06   -0.05    0.00    0.00      -0.26   -0.54   -0.45
#  32    0.99   -1.39    0.86   -0.12   -0.13    0.00    0.00       0.22   -0.33   -0.35
#  33    3.70   -0.71    0.16   -0.93   -0.06    0.00    0.00       2.16   -3.38   -0.22
#  34    0.92   -1.36    0.16   -0.55   -0.16    0.00    0.00      -0.99   -1.52   -0.45
#  35    0.08   -1.48    0.23   -0.14   -0.13    0.00    0.00      -1.44   -0.33   -0.30
#  36    0.22   -3.22    0.74   -0.26   -0.47    0.00    0.00      -2.98   -0.52   -0.95
#  37   -3.13   -0.70    0.33    0.65   -0.15    0.00    0.00      -2.99    1.26   -0.28
#  38   -3.01   -0.44    0.05    0.98   -0.11    0.00    0.00      -2.53    1.87   -0.20
#  39   -7.97   -0.02    0.00    3.11    0.16    0.00    0.00      -4.73   10.53    0.54
#  40   -3.40   -0.29    0.04    0.91   -0.07    0.00    0.00      -2.80    3.83   -0.28
#  41   -0.77   -0.21    0.05    0.57   -0.04    0.00    0.00      -0.40    3.60   -0.26
#  42   -1.69   -0.23    0.02    1.36   -0.07    0.00    0.00      -0.62    5.35   -0.28
#  43   -2.85   -0.15    0.00    0.36   -0.04    0.00    0.00      -2.67    2.44   -0.25
#  44   -3.72   -0.30    0.03    1.71   -0.08    0.00    0.00      -2.35    6.22   -0.28
#  45   -2.21   -0.10    0.00    0.32   -0.03    0.00    0.00      -2.01    3.01   -0.28
#  46   -1.58   -0.09    0.00    0.44   -0.02    0.00    0.00      -1.25    5.22   -0.28
#  47   -0.31   -0.07    0.00    0.22   -0.02    0.00    0.00      -0.17    3.72   -0.28
#  48   -1.16   -0.10    0.00    0.28   -0.02    0.00    0.00      -1.01    2.70   -0.22
#  49   -1.16   -0.22    0.04    0.17   -0.05    0.00    0.00      -1.22    0.93   -0.28
#  50   -0.44   -0.21    0.08    0.21   -0.04    0.00    0.00      -0.41    1.41   -0.28
#  51   -0.30   -0.15    0.02    0.27   -0.04    0.00    0.00      -0.20    1.97   -0.28
#  52   -1.54   -0.46    0.51    0.38   -0.06    0.00    0.00      -1.16    1.69   -0.28
#  53   -1.13   -0.50    0.28    0.05   -0.09    0.00    0.00      -1.39    0.14   -0.28
#  54   -1.20   -0.29    0.04    0.07   -0.08    0.00    0.00      -1.46    0.24   -0.28
#  55   -0.78   -0.06    0.01    2.39    0.19    0.00    0.00       1.75    6.95    0.56
#  56   -0.01   -0.41    0.06    1.61   -0.14    0.00    0.00       1.12    3.26   -0.28
#  57   -0.12   -0.27    0.04    0.72   -0.07    0.00    0.00       0.29    2.71   -0.28
#  58   -0.23   -0.10    0.00    0.06   -0.03    0.00    0.00      -0.29    0.54   -0.25
#  59   -0.16   -0.03    0.00    0.03   -0.01    0.00    0.00      -0.17    0.87   -0.28
#  60   -0.15   -0.07    0.00    0.15   -0.02    0.00    0.00      -0.10    1.78   -0.28
#  61   -7.89   -1.14    2.52    0.70   -0.06    0.00    0.00      -5.86    2.21   -0.20
#  62   -5.90   -0.48    0.18    1.84   -0.09    0.00    0.00      -4.45    4.68   -0.22
#  63   -3.79   -0.38    0.22    1.17   -0.07    0.00    0.00      -2.85    4.81   -0.28
#  64   -2.63   -0.12    0.01    0.15   -0.03    0.00    0.00      -2.61    1.40   -0.28
#  65   -0.64   -0.25    0.03    0.73   -0.06    0.00    0.00      -0.19    3.19   -0.28

@<TRIPOS>MOLECULE
          T368869        99
   65    67     0     0     0



@<TRIPOS>ATOM
      1 Cl1         9.4858   -12.1717    98.9273 Cl         1          -0.0337
      2 C1          8.6558   -10.7948    98.2724 C.ar       1          -0.0416
      3 C2          8.7510    -9.5667    98.9027 C.ar       1          -0.0758
      4 C3          8.0921    -8.4696    98.3836 C.ar       1          -0.1094
      5 C4          7.3333    -8.5989    97.2276 C.ar       1           0.1474
      6 N1          6.6651    -7.4880    96.6998 N.am       1          -0.6603
      7 C5          5.5155    -7.6551    96.0165 C.2        1           0.5113
      8 O1          5.0598    -8.7681    95.8590 O.2        1          -0.5109
      9 C6          4.7961    -6.4589    95.4483 C.3        1          -0.1234
     10 C7          3.2919    -6.7398    95.3997 C.3        1          -0.1395
     11 C8          2.5792    -5.5432    94.7661 C.3        1          -0.0122
     12 N2          3.0822    -5.3312    93.4033 N.4        1          -0.3811
     13 H1          2.5791    -4.5682    92.9760 H          1           0.4211
     14 C9          2.8773    -6.5526    92.6130 C.3        1          -0.0108
     15 C10         1.3842    -6.8820    92.5615 C.3        1          -0.1469
     16 C11         0.6280    -5.7214    91.9119 C.3        1          -0.1152
     17 C12        -0.8652    -6.0508    91.8603 C.3        1          -0.1321
     18 C13        -1.6215    -4.8902    91.2108 C.3        1           0.1186
     19 N3         -1.1203    -4.6812    89.8502 N.am       1          -0.7308
     20 C14        -1.6869    -5.3332    88.8156 C.2        1           0.5380
     21 O2         -2.6150    -6.0955    89.0118 O.2        1          -0.5208
     22 C15        -1.1861    -5.1243    87.4560 C.2        1          -0.2146
     23 C16        -0.2019    -5.9089    86.9720 C.2        1          -0.0130
     24 C17         0.2101    -7.1127    87.7113 C.ar       1          -0.0577
     25 C18         1.5275    -7.2430    88.1634 C.ar       1          -0.0273
     26 C19         1.9063    -8.3739    88.8562 C.ar       1          -0.0373
     27 Cl2         3.5402    -8.5384    89.4191 Cl         1          -0.0529
     28 C20         0.9843    -9.3798    89.1044 C.ar       1          -0.0211
     29 Cl3         1.4691   -10.8001    89.9769 Cl         1          -0.0477
     30 C21        -0.3215    -9.2563    88.6596 C.ar       1          -0.1061
     31 C22        -0.7149    -8.1290    87.9702 C.ar       1          -0.0821
     32 C23         4.5145    -5.0104    93.4379 C.3        1          -0.0249
     33 C24         5.2939    -6.1886    94.0258 C.3        1          -0.1232
     34 C25         7.2387    -9.8317    96.5963 C.ar       1          -0.1260
     35 C26         7.9042   -10.9260    97.1166 C.ar       1          -0.0117
     36 Cl4         7.7923   -12.4668    96.3247 Cl         1          -0.0305
     37 H2          9.3409    -9.4660    99.8017 H          1           0.1508
     38 H3          8.1667    -7.5115    98.8764 H          1           0.1565
     39 H4          7.0295    -6.5979    96.8259 H          1           0.4173
     40 H5          4.9862    -5.5868    96.0739 H          1           0.1353
     41 H6          3.1068    -7.6325    94.8024 H          1           0.1162
     42 H7          2.9169    -6.8934    96.4116 H          1           0.1089
     43 H8          1.5072    -5.7371    94.7306 H          1           0.1249
     44 H9          2.7662    -4.6515    95.3644 H          1           0.1383
     45 H10         3.2503    -6.3970    91.6008 H          1           0.1297
     46 H11         3.4162    -7.3793    93.0758 H          1           0.1321
     47 H12         1.2322    -7.7883    91.9751 H          1           0.0883
     48 H13         1.0112    -7.0374    93.5738 H          1           0.0887
     49 H14         0.7801    -4.8152    92.4982 H          1           0.0786
     50 H15         1.0009    -5.5659    90.8995 H          1           0.0788
     51 H16        -1.0173    -6.9570    91.2740 H          1           0.0743
     52 H17        -1.2382    -6.2061    92.8727 H          1           0.0740
     53 H18        -2.6853    -5.1250    91.1741 H          1           0.0693
     54 H19        -1.4694    -3.9840    91.7971 H          1           0.0697
     55 H20        -0.3806    -4.0735    89.6938 H          1           0.4012
     56 H21        -1.6049    -4.3418    86.8407 H          1           0.1385
     57 H22         0.2840    -5.6536    86.0420 H          1           0.1472
     58 H23         2.2461    -6.4603    87.9703 H          1           0.1303
     59 H24        -1.0343   -10.0433    88.8566 H          1           0.1442
     60 H25        -1.7347    -8.0325    87.6276 H          1           0.1398
     61 H26         4.8662    -4.8124    92.4255 H          1           0.1480
     62 H27         4.6731    -4.1266    94.0557 H          1           0.1345
     63 H28         6.3564    -5.9465    94.0513 H          1           0.1002
     64 H29         5.1359    -7.0740    93.4100 H          1           0.1214
     65 H30         6.6491    -9.9349    95.6973 H          1           0.1468
@<TRIPOS>BOND
     1    1    2 1
     2    2   35 ar
     3    2    3 ar
     4    3    4 ar
     5    3   37 1
     6    4    5 ar
     7    4   38 1
     8    5    6 1
     9    5   34 ar
    10    6    7 am
    11    6   39 1
    12    7    8 2
    13    7    9 1
    14    9   33 1
    15    9   10 1
    16    9   40 1
    17   10   11 1
    18   10   41 1
    19   10   42 1
    20   11   12 1
    21   11   43 1
    22   11   44 1
    23   12   13 1
    24   12   14 1
    25   12   32 1
    26   14   15 1
    27   14   45 1
    28   14   46 1
    29   15   16 1
    30   15   47 1
    31   15   48 1
    32   16   17 1
    33   16   49 1
    34   16   50 1
    35   17   18 1
    36   17   51 1
    37   17   52 1
    38   18   19 1
    39   18   53 1
    40   18   54 1
    41   19   20 am
    42   19   55 1
    43   20   21 2
    44   20   22 1
    45   22   23 2
    46   22   56 1
    47   23   24 1
    48   23   57 1
    49   24   31 ar
    50   24   25 ar
    51   25   26 ar
    52   25   58 1
    53   26   27 1
    54   26   28 ar
    55   28   29 1
    56   28   30 ar
    57   30   31 ar
    58   30   59 1
    59   31   60 1
    60   32   33 1
    61   32   61 1
    62   32   62 1
    63   33   63 1
    64   33   64 1
    65   34   35 ar
    66   34   65 1
    67   35   36 1
##########                 Name:              T537305
##########          Protonation:                   24
##########               SMILES:   C=CCc1cc(ccc1OCCCOc2c([nH+]c(nc2N)N)N)Br
##########            Long Name:   5-[3-(2-allyl-4-bromo-phenoxy)propoxy]pyrimidin-1-ium-2,4,6-triamine
##########          FlexRecCode: 1
##########               Number:                   96
##########   Ligand Source File: /raidb/db2/rgc/tcams/tcams-0001609.db2.gz
##########           GlobalRank: 418
##########                 Rank:                    1
##########               Setnum:                  233
##########             Matchnum:                 5198
##########                Cloud:                    1
##########        Electrostatic:           -41.368671
##########        Van der Waals:           -24.835926
##########  Ligand Polar Desolv:             5.234112
########## Ligand Apolar Desolv:            -3.077724
##########      Internal Energy:             0.000000
##########      Receptor Energy: 0.0
########## Receptor Desolvation:             0.000000
########## Receptor Hydrophobic:             0.000000
##########         Total Energy: -64.05
##########        Ligand Charge:             1.000000
##########            Arbitrary:    +999.9990
##########     heavy atom count:   24
##########           pose count:    1
##########        Ligand Energy:             0.000000
# num electro vdwattr vdwrepu polsolv apolsol rdesolv rhydroe totalscore fullpol fullapo
#   1   16.81   -1.12    0.11   -7.13    0.35    0.00    0.00       9.02  -19.33    0.95
#   2  -14.39   -1.03    0.08    5.35   -1.67    0.00    0.00     -11.67   15.77   -4.94
#   3   15.48   -1.29    0.14   -5.73    0.39    0.00    0.00       8.99  -14.64    1.00
#   4  -14.49   -0.03    0.00    4.55    0.19    0.00    0.00      -9.79   14.20    0.59
#   5  -12.54   -1.31    0.14    5.02   -0.85    0.00    0.00      -9.54   12.63   -2.13
#   6   20.34   -2.05    0.34   -9.73    0.45    0.00    0.00       9.35  -20.05    0.92
#   7    3.96   -1.18    0.09   -1.45   -0.10    0.00    0.00       1.32   -3.90   -0.27
#   8    9.39   -1.15    0.09   -2.44    0.33    0.00    0.00       6.23   -5.88    0.79
#   9   -1.22   -0.61    0.04    0.34   -0.04    0.00    0.00      -1.49    1.10   -0.12
#  10    3.41   -0.99    0.14   -0.78   -0.11    0.00    0.00       1.67   -1.84   -0.25
#  11   -1.20   -1.28    0.53    0.21   -0.03    0.00    0.00      -1.78    0.58   -0.09
#  12    3.63   -0.87    0.05   -1.20    0.29    0.00    0.00       1.89   -3.41    0.82
#  13   -1.42   -1.30    0.13    0.47   -0.11    0.00    0.00      -2.22    1.29   -0.31
#  14    1.38   -1.20    0.11   -0.66   -0.15    0.00    0.00      -0.50   -1.88   -0.42
#  15    0.42   -1.21    0.08   -0.24   -0.22    0.00    0.00      -1.17   -0.50   -0.46
#  16    1.09   -1.60    0.24   -0.41   -0.16    0.00    0.00      -0.84   -0.78   -0.30
#  17    0.11  -10.89   11.29   -0.20   -0.67    0.00    0.00      -0.36   -0.32   -1.09
#  18    0.61   -2.11    0.82   -0.20   -0.23    0.00    0.00      -1.10   -0.38   -0.44
#  19    1.32   -1.72    0.33   -0.41   -0.18    0.00    0.00      -0.68   -0.81   -0.36
#  20    0.81   -1.46    0.21   -0.15   -0.14    0.00    0.00      -0.73   -0.26   -0.24
#  21    2.47   -4.51    2.56   -0.57   -0.27    0.00    0.00      -0.31   -0.94   -0.44
#  22    2.87   -5.05    3.29   -0.77   -0.20    0.00    0.00       0.14   -1.29   -0.33
#  23  -14.63   -1.64    0.50    3.35   -0.74    0.00    0.00     -13.15    9.70   -2.13
#  24   32.60   -3.98    3.57   -5.84    0.36    0.00    0.00      26.70  -15.04    0.92
#  25   10.46   -1.63    0.57   -3.97    0.66    0.00    0.00       6.08  -12.51    2.07
#  26   -7.40   -0.02    0.00    2.24    0.13    0.00    0.00      -5.06   10.71    0.60
#  27  -11.78   -0.03    0.00    3.45    0.16    0.00    0.00      -8.20   12.74    0.59
#  28  -11.89   -0.04    0.00    6.21    0.30    0.00    0.00      -5.42   12.56    0.60
#  29  -10.93   -0.04    0.00    4.16    0.21    0.00    0.00      -6.61   10.92    0.54
#  30   -1.07   -0.14    0.00    0.27   -0.04    0.00    0.00      -0.98    2.05   -0.28
#  31   -1.77   -0.15    0.01    0.20   -0.04    0.00    0.00      -1.74    1.53   -0.28
#  32   -3.70   -0.52    0.22    0.48   -0.12    0.00    0.00      -3.64    1.08   -0.28
#  33   -2.20   -0.46    0.26    0.50   -0.11    0.00    0.00      -2.00    1.32   -0.28
#  34   -1.32   -0.38    0.16    0.36   -0.06    0.00    0.00      -1.23    1.64   -0.26
#  35   -1.38   -1.13    1.69    0.53   -0.09    0.00    0.00      -0.39    1.47   -0.26
#  36   -0.66   -0.21    0.02    0.54   -0.04    0.00    0.00      -0.35    2.75   -0.21
#  37   -1.26   -0.23    0.01    0.40   -0.08    0.00    0.00      -1.16    1.37   -0.28
#  38   -2.45   -0.57    0.20    0.29   -0.13    0.00    0.00      -2.66    0.60   -0.28
#  39   -1.77   -0.58    0.10    0.29   -0.15    0.00    0.00      -2.12    0.50   -0.26
#  40   -1.50   -0.41    0.11    0.29   -0.11    0.00    0.00      -1.62    0.69   -0.26
#  41   -1.90   -1.98    3.76    0.53   -0.18    0.00    0.00       0.23    0.83   -0.28
#  42   -1.56   -0.95    1.37    0.29   -0.13    0.00    0.00      -0.99    0.59   -0.27
#  43   -1.55   -1.95    2.97    0.44   -0.18    0.00    0.00      -0.27    0.68   -0.28
#  44  -25.74   -0.13    0.02    3.09    0.20    0.00    0.00     -22.55    8.41    0.54
#  45  -16.80   -0.08    0.00    3.27    0.24    0.00    0.00     -13.36    8.08    0.60

@<TRIPOS>MOLECULE
          T537305        24
   45    46     0     0     0



@<TRIPOS>ATOM
      1 N1         -0.6511    -4.8237    93.1581 N.pl3      1          -0.7898
      2 C1          0.6623    -4.8432    93.6005 C.ar       1           0.6851
      3 N2          0.9077    -5.0859    94.8789 N.ar       1          -0.5950
      4 H1          0.1686    -5.2458    95.4864 H          1           0.4388
      5 C2          2.1557    -5.1136    95.3408 C.ar       1           0.4989
      6 N3          2.4042    -5.3699    96.6831 N.pl3      1          -0.8046
      7 C3          3.2102    -4.8823    94.4584 C.ar       1          -0.1413
      8 O1          4.5013    -4.9028    94.8931 O.3        1          -0.2876
      9 C4          5.1805    -6.1594    94.8500 C.3        1           0.0467
     10 C5          6.6077    -5.9859    95.3732 C.3        1          -0.1204
     11 C6          7.3349    -7.3313    95.3271 C.3        1           0.0605
     12 O2          6.6400    -8.2765    96.1430 O.3        1          -0.3026
     13 C7          7.3843    -9.2527    96.7266 C.ar       1           0.1438
     14 C8          7.5947   -10.4545    96.0659 C.ar       1          -0.2017
     15 C9          8.3512   -11.4452    96.6606 C.ar       1          -0.0537
     16 C10         8.8990   -11.2400    97.9146 C.ar       1          -0.1215
     17 Br1         9.9344   -12.5982    98.7264 Br         1          -0.0411
     18 C11         8.6908   -10.0425    98.5748 C.ar       1          -0.0470
     19 C12         7.9391    -9.0468    97.9811 C.ar       1          -0.0985
     20 C13         7.7173    -7.7402    98.6984 C.3        1          -0.0463
     21 C14         6.4726    -7.8355    99.5424 C.2        1          -0.1503
     22 C15         5.4711    -7.0186    99.3272 C.2        1          -0.1865
     23 C16         2.9110    -4.6301    93.1207 C.ar       1           0.5326
     24 N4          3.9278    -4.3943    92.2041 N.pl3      1          -0.7772
     25 N5          1.6375    -4.6240    92.7324 N.ar       1          -0.5789
     26 H2         -0.8454    -4.6531    92.2232 H          1           0.4470
     27 H3         -1.3757    -4.9846    93.7826 H          1           0.4299
     28 H4          1.6656    -5.5301    97.2911 H          1           0.4239
     29 H5          3.3163    -5.3886    97.0125 H          1           0.4429
     30 H6          4.6504    -6.8804    95.4723 H          1           0.0631
     31 H7          5.2118    -6.5203    93.8219 H          1           0.0660
     32 H8          7.1378    -5.2648    94.7510 H          1           0.0924
     33 H9          6.5765    -5.6249    96.4013 H          1           0.0908
     34 H10         7.3662    -7.6923    94.2991 H          1           0.0668
     35 H11         8.3517    -7.2076    95.6998 H          1           0.0679
     36 H12         7.1670   -10.6152    95.0873 H          1           0.1342
     37 H13         8.5150   -12.3810    96.1468 H          1           0.1369
     38 H14         9.1193    -9.8842    99.5535 H          1           0.1418
     39 H15         8.5741    -7.5266    99.3374 H          1           0.0802
     40 H16         7.6005    -6.9398    97.9677 H          1           0.0880
     41 H17         6.4059    -8.5771   100.3246 H          1           0.1068
     42 H18         5.5378    -6.2769    98.5450 H          1           0.0988
     43 H19         4.5791    -7.0869    99.9320 H          1           0.0995
     44 H20         4.8535    -4.4045    92.4935 H          1           0.4325
     45 H21         3.7120    -4.2195    91.2747 H          1           0.4283
@<TRIPOS>BOND
     1    1    2 1
     2    1   26 1
     3    1   27 1
     4    2   25 ar
     5    2    3 ar
     6    3    4 1
     7    3    5 ar
     8    5    6 1
     9    5    7 ar
    10    6   28 1
    11    6   29 1
    12    7    8 1
    13    7   23 ar
    14    8    9 1
    15    9   10 1
    16    9   30 1
    17    9   31 1
    18   10   11 1
    19   10   32 1
    20   10   33 1
    21   11   12 1
    22   11   34 1
    23   11   35 1
    24   12   13 1
    25   13   19 ar
    26   13   14 ar
    27   14   15 ar
    28   14   36 1
    29   15   16 ar
    30   15   37 1
    31   16   17 1
    32   16   18 ar
    33   18   19 ar
    34   18   38 1
    35   19   20 1
    36   20   21 1
    37   20   39 1
    38   20   40 1
    39   21   22 2
    40   21   41 1
    41   22   42 1
    42   22   43 1
    43   23   24 1
    44   23   25 ar
    45   24   44 1
    46   24   45 1
##########                 Name:              T532732
##########          Protonation:                   55
##########               SMILES:   Cc1[nH+]/c(=N\c2c(cccc2)Cl)/[nH]c(c1)N[C@H]3CC[NH+](CC3)CC4CCCCC4
##########            Long Name:   -(cyclohexylmethyl)piperidin-1-ium-4-yl]-4-methyl-1H-pyrimidin-3-ium-6-amine
##########          FlexRecCode: 1
##########               Number:                  168
##########   Ligand Source File: /raidb/db2/rgc/tcams/tcams-0000989.db2.gz
##########           GlobalRank: 419
##########                 Rank:                    1
##########               Setnum:                  242
##########             Matchnum:                 4850
##########                Cloud:                    1
##########        Electrostatic:           -46.388161
##########        Van der Waals:           -27.338743
##########  Ligand Polar Desolv:            14.738156
########## Ligand Apolar Desolv:            -5.048699
##########      Internal Energy:             0.000000
##########      Receptor Energy: 0.0
########## Receptor Desolvation:             0.000000
########## Receptor Hydrophobic:             0.000000
##########         Total Energy: -64.04
##########        Ligand Charge:             2.000000
##########            Arbitrary:    +999.9990
##########     heavy atom count:   29
##########           pose count:    1
##########        Ligand Energy:             0.000000
# num electro vdwattr vdwrepu polsolv apolsol rdesolv rhydroe totalscore fullpol fullapo
#   1    3.93   -0.61    0.09   -1.39   -0.05    0.00    0.00       1.98   -5.69   -0.21
#   2   -8.77   -0.90    0.19    2.33   -0.17    0.00    0.00      -7.31   10.39   -0.75
#   3    9.79   -0.53    0.03   -4.05    0.17    0.00    0.00       5.41  -19.83    0.85
#   4   -6.01   -0.01    0.00    1.29    0.04    0.00    0.00      -4.69   13.33    0.38
#   5   -6.40   -0.59    0.05    4.00   -0.93    0.00    0.00      -3.87   19.78   -4.62
#   6    8.68   -0.54    0.03   -4.01    0.20    0.00    0.00       4.36  -21.39    1.04
#   7  -14.34   -0.82    0.13    5.28   -0.45    0.00    0.00     -10.20   23.95   -2.03
#   8   17.01   -1.05    0.13   -7.61    0.34    0.00    0.00       8.83  -28.33    1.26
#   9   -1.96   -0.44    0.02    1.08   -0.06    0.00    0.00      -1.36    4.45   -0.25
#  10    1.82   -0.32    0.01   -1.45   -0.04    0.00    0.00       0.01   -7.58   -0.23
#  11    0.13   -0.60    0.07   -0.04   -0.11    0.00    0.00      -0.54   -0.13   -0.37
#  12    9.93   -1.12    0.23   -6.06    0.10    0.00    0.00       3.08  -17.22    0.27
#  13  -15.19   -0.04    0.00    7.40    0.15    0.00    0.00      -7.68   20.69    0.43
#  14    0.18   -0.79    0.12    0.33   -0.11    0.00    0.00      -0.28    0.89   -0.31
#  15    2.67   -0.99    0.07   -1.79   -0.07    0.00    0.00      -0.11   -3.49   -0.14
#  16    3.15   -1.44    0.26   -2.36   -0.12    0.00    0.00      -0.52   -4.11   -0.21
#  17    2.90   -2.10    0.55   -2.14   -0.17    0.00    0.00      -0.96   -3.17   -0.25
#  18    3.04   -2.27    0.72   -1.94   -0.17    0.00    0.00      -0.62   -2.82   -0.25
#  19    2.86   -2.31    0.58   -1.93   -0.16    0.00    0.00      -0.97   -2.95   -0.25
#  20    2.60   -1.83    0.77   -1.82   -0.12    0.00    0.00      -0.41   -3.30   -0.22
#  21    0.51   -0.94    0.13   -0.51   -0.14    0.00    0.00      -0.95   -1.28   -0.36
#  22    3.42   -0.92    0.15   -2.27   -0.08    0.00    0.00       0.30   -6.45   -0.23
#  23   11.39   -1.79    1.17   -3.04   -0.12    0.00    0.00       7.62  -11.67   -0.46
#  24    1.24   -1.52    0.70   -3.59    0.45    0.00    0.00      -2.72  -15.54    1.94
#  25   -0.33   -1.05    0.23    0.74   -0.14    0.00    0.00      -0.56    3.07   -0.59
#  26    0.86   -0.59    0.06   -0.69   -0.07    0.00    0.00      -0.43   -3.68   -0.35
#  27    0.59   -0.59    0.04   -0.37   -0.10    0.00    0.00      -0.43   -1.74   -0.47
#  28    0.74   -1.07    0.19   -0.81   -0.14    0.00    0.00      -1.09   -2.76   -0.47
#  29    0.70   -1.20    0.32   -0.64   -0.15    0.00    0.00      -0.97   -1.98   -0.46
#  30    0.11   -1.13    0.18   -0.48   -0.08    0.00    0.00      -1.40   -1.64   -0.29
#  31    0.23   -2.52    0.42   -0.54   -0.34    0.00    0.00      -2.75   -1.55   -0.97
#  32   -2.30   -0.10    0.01    0.54   -0.03    0.00    0.00      -1.89    4.42   -0.28
#  33   -2.18   -0.10    0.00    0.27   -0.03    0.00    0.00      -2.03    2.54   -0.28
#  34   -4.30   -0.50    0.25    1.65   -0.08    0.00    0.00      -2.97    5.59   -0.28
#  35   -4.10   -0.01    0.00    1.93    0.05    0.00    0.00      -2.12   17.66    0.46
#  36  -12.69   -0.03    0.00    7.01    0.14    0.00    0.00      -5.57   23.48    0.47
#  37   -2.25   -0.10    0.00    0.45   -0.02    0.00    0.00      -1.92    4.95   -0.23
#  38   -0.98   -0.11    0.01    0.42   -0.03    0.00    0.00      -0.68    4.12   -0.28
#  39   -0.73   -0.07    0.00    0.34   -0.02    0.00    0.00      -0.48    5.48   -0.28
#  40   -0.84   -0.28    0.09    1.89   -0.06    0.00    0.00       0.81    8.40   -0.27
#  41   -2.50   -0.19    0.01    1.51   -0.06    0.00    0.00      -1.23    6.56   -0.28
#  42   -1.76   -0.23    0.04    1.69   -0.06    0.00    0.00      -0.31    8.48   -0.28
#  43   -2.77   -0.38    0.26    1.38   -0.06    0.00    0.00      -1.58    6.07   -0.28
#  44   -2.21   -0.43    0.08    1.88   -0.08    0.00    0.00      -0.75    5.27   -0.22
#  45   -1.99   -0.65    0.47    0.76   -0.12    0.00    0.00      -1.53    1.83   -0.28
#  46   -1.34   -0.69    0.33    2.54   -0.11    0.00    0.00       0.74    5.32   -0.22
#  47   -1.81   -0.95    0.62    0.20   -0.18    0.00    0.00      -2.12    0.31   -0.28
#  48   -1.61   -1.24    1.22    1.07   -0.16    0.00    0.00      -0.72    1.84   -0.28
#  49   -1.62   -0.65    0.27    0.29   -0.15    0.00    0.00      -1.87    0.53   -0.28
#  50   -1.74   -1.66    3.12   -0.26   -0.18    0.00    0.00      -0.72   -0.40   -0.28
#  51   -1.77   -1.36    1.19   -0.09   -0.18    0.00    0.00      -2.21   -0.14   -0.28
#  52   -1.55   -0.93    0.31    0.92   -0.17    0.00    0.00      -1.42    1.53   -0.28
#  53   -1.49   -0.72    0.35    1.39   -0.13    0.00    0.00      -0.60    3.01   -0.28
#  54   -1.74   -1.17    3.14    0.51   -0.10    0.00    0.00       0.63    1.37   -0.28
#  55   -3.27   -0.54    0.31    3.37   -0.08    0.00    0.00      -0.21    9.23   -0.22
#  56   -4.28   -0.28    0.04    1.88   -0.06    0.00    0.00      -2.70    6.60   -0.21
#  57   -3.44   -0.39    0.07    1.78   -0.09    0.00    0.00      -2.07    5.45   -0.28
#  58   -2.29   -0.50    0.27    1.58   -0.09    0.00    0.00      -1.03    5.20   -0.28
#  59   -8.58   -0.77    0.78    3.45   -0.08    0.00    0.00      -5.20   11.90   -0.28
#  60   -0.57   -0.07    0.00    0.33   -0.02    0.00    0.00      -0.32    4.98   -0.26
#  61   -0.79   -0.07    0.00    0.21   -0.02    0.00    0.00      -0.66    3.75   -0.28
#  62   -1.04   -0.33    0.08    0.60   -0.07    0.00    0.00      -0.76    2.35   -0.28
#  63   -1.37   -0.22    0.02    0.34   -0.06    0.00    0.00      -1.29    1.57   -0.28

@<TRIPOS>MOLECULE
          T532732        55
   63    66     0     0     0



@<TRIPOS>ATOM
      1 C1          7.5818    -6.8512    90.1389 C.3        1          -0.1605
      2 C2          6.4616    -7.0922    91.1178 C.2        1           0.3405
      3 N1          6.4811    -8.1644    91.8859 N.pl3      1          -0.5843
      4 H1          7.2191    -8.7896    91.8122 H          1           0.4542
      5 C3          5.5027    -8.4052    92.7643 C.2        1           0.5538
      6 N2          4.4433    -7.5381    92.8916 N.pl3      1          -0.5908
      7 C4          4.3911    -6.4167    92.1106 C.2        1           0.5635
      8 N3          3.3442    -5.5378    92.2210 N.pl3      1          -0.6795
      9 C5          2.2691    -5.7964    93.1821 C.3        1           0.1035
     10 C6          1.1609    -6.6085    92.5066 C.3        1          -0.1698
     11 C7          0.0180    -6.8206    93.5015 C.3        1          -0.0086
     12 N4         -0.5166    -5.5212    93.9269 N.4        1          -0.3859
     13 H2         -1.2968    -5.6682    94.5496 H          1           0.4271
     14 C8         -0.9696    -4.7714    92.7478 C.3        1          -0.0092
     15 C9         -1.5273    -3.4165    93.1883 C.3        1          -0.1134
     16 C10        -2.7069    -3.6348    94.1379 C.3        1          -0.1282
     17 C11        -3.2645    -2.2798    94.5784 C.3        1          -0.1207
     18 C12        -3.7364    -1.4990    93.3502 C.3        1          -0.1287
     19 C13        -2.5568    -1.2805    92.4006 C.3        1          -0.1228
     20 C14        -1.9991    -2.6354    91.9601 C.3        1          -0.1117
     21 C15         0.5221    -4.7511    94.6222 C.3        1          -0.0196
     22 C16         1.6824    -4.4676    93.6659 C.3        1          -0.1513
     23 C17         5.4170    -6.1807    91.2104 C.2        1          -0.3401
     24 N5          5.5542    -9.4919    93.5206 N.2        1          -0.4835
     25 C18         6.6639   -10.2887    93.4971 C.ar       1           0.0736
     26 C19         7.0745   -10.8859    92.3022 C.ar       1          -0.1624
     27 C20         8.1956   -11.6891    92.2862 C.ar       1          -0.0877
     28 C21         8.9136   -11.9049    93.4498 C.ar       1          -0.0902
     29 C22         8.5139   -11.3174    94.6368 C.ar       1          -0.0857
     30 C23         7.3977   -10.5062    94.6675 C.ar       1          -0.0187
     31 Cl1         6.9021    -9.7637    96.1563 Cl         1          -0.0380
     32 H3          8.3046    -7.6642    90.2063 H          1           0.1328
     33 H4          7.1773    -6.8076    89.1276 H          1           0.1082
     34 H5          8.0735    -5.9074    90.3746 H          1           0.1265
     35 H6          3.7372    -7.7207    93.5311 H          1           0.4511
     36 H7          3.3155    -4.7452    91.6629 H          1           0.4382
     37 H8          2.6647    -6.3524    94.0322 H          1           0.1245
     38 H9          0.7908    -6.0666    91.6363 H          1           0.1168
     39 H10         1.5562    -7.5750    92.1939 H          1           0.1229
     40 H11        -0.7734    -7.4000    93.0262 H          1           0.1278
     41 H12         0.3903    -7.3617    94.3713 H          1           0.1445
     42 H13        -0.1292    -4.6158    92.0713 H          1           0.1326
     43 H14        -1.7487    -5.3358    92.2355 H          1           0.1370
     44 H15        -0.7482    -2.8519    93.7004 H          1           0.0941
     45 H16        -3.4860    -4.1992    93.6257 H          1           0.0809
     46 H17        -2.3707    -4.1912    95.0129 H          1           0.0529
     47 H18        -4.1050    -2.4354    95.2549 H          1           0.0753
     48 H19        -2.4854    -1.7154    95.0906 H          1           0.0669
     49 H20        -4.5156    -2.0635    92.8380 H          1           0.0681
     50 H21        -4.1338    -0.5337    93.6641 H          1           0.0743
     51 H22        -2.8930    -0.7242    91.5255 H          1           0.0771
     52 H23        -1.7778    -0.7161    92.9128 H          1           0.0667
     53 H24        -1.1588    -2.4799    91.2835 H          1           0.0738
     54 H25        -2.7783    -3.2000    91.4479 H          1           0.0761
     55 H26         0.1015    -3.8080    94.9712 H          1           0.1259
     56 H27         0.8871    -5.3226    95.4755 H          1           0.1501
     57 H28         2.4521    -3.8970    94.1856 H          1           0.1239
     58 H29         1.3193    -3.8968    92.8112 H          1           0.1317
     59 H30         5.4030    -5.3003    90.5850 H          1           0.1966
     60 H31         6.5149   -10.7192    91.3935 H          1           0.1318
     61 H32         8.5138   -12.1511    91.3632 H          1           0.1454
     62 H33         9.7902   -12.5356    93.4314 H          1           0.1494
     63 H34         9.0792   -11.4903    95.5407 H          1           0.1517
@<TRIPOS>BOND
     1    1    2 1
     2    1   32 1
     3    1   33 1
     4    1   34 1
     5    2   23 1
     6    2    3 2
     7    3    4 1
     8    3    5 1
     9    5    6 1
    10    5   24 2
    11    6    7 1
    12    6   35 1
    13    7    8 1
    14    7   23 2
    15    8    9 1
    16    8   36 1
    17    9   22 1
    18    9   10 1
    19    9   37 1
    20   10   11 1
    21   10   38 1
    22   10   39 1
    23   11   12 1
    24   11   40 1
    25   11   41 1
    26   12   13 1
    27   12   14 1
    28   12   21 1
    29   14   15 1
    30   14   42 1
    31   14   43 1
    32   15   20 1
    33   15   16 1
    34   15   44 1
    35   16   17 1
    36   16   45 1
    37   16   46 1
    38   17   18 1
    39   17   47 1
    40   17   48 1
    41   18   19 1
    42   18   49 1
    43   18   50 1
    44   19   20 1
    45   19   51 1
    46   19   52 1
    47   20   53 1
    48   20   54 1
    49   21   22 1
    50   21   55 1
    51   21   56 1
    52   22   57 1
    53   22   58 1
    54   23   59 1
    55   24   25 1
    56   25   30 ar
    57   25   26 ar
    58   26   27 ar
    59   26   60 1
    60   27   28 ar
    61   27   61 1
    62   28   29 ar
    63   28   62 1
    64   29   30 ar
    65   29   63 1
    66   30   31 1
##########                 Name:              T536997
##########          Protonation:                   86
##########               SMILES:   c1ccc2c(c1)c(ccc2OCC[NH+]3CCCC3)C[NH+]4CC[C@H](C4)NC(=O)c5ccc(c(c5)Cl)Cl
##########            Long Name:   rrolidin-1-ium-1-ylethoxy)-1-naphthyl]methyl]pyrrolidin-1-ium-3-yl]benzamide
##########          FlexRecCode: 1
##########               Number:                  205
##########   Ligand Source File: /raidb/db2/rgc/tcams/tcams-0001556.db2.gz
##########           GlobalRank: 420
##########                 Rank:                    1
##########               Setnum:                  163
##########             Matchnum:                 4478
##########                Cloud:                    1
##########        Electrostatic:           -56.479584
##########        Van der Waals:           -18.480019
##########  Ligand Polar Desolv:            15.170611
########## Ligand Apolar Desolv:            -4.238686
##########      Internal Energy:             0.000000
##########      Receptor Energy: 0.0
########## Receptor Desolvation:             0.000000
########## Receptor Hydrophobic:             0.000000
##########         Total Energy: -64.03
##########        Ligand Charge:             2.000000
##########            Arbitrary:    +999.9990
##########     heavy atom count:   35
##########           pose count:    1
##########        Ligand Energy:             0.000000
# num electro vdwattr vdwrepu polsolv apolsol rdesolv rhydroe totalscore fullpol fullapo
#   1    0.12   -5.27    2.48   -0.57   -0.57    0.00    0.00      -3.80   -0.94   -0.95
#   2    0.01   -1.73    0.45   -0.31   -0.15    0.00    0.00      -1.74   -0.61   -0.29
#   3    0.62   -1.51    0.18   -0.78   -0.22    0.00    0.00      -1.71   -1.64   -0.46
#   4    0.12   -1.64    0.30   -0.36   -0.17    0.00    0.00      -1.75   -0.96   -0.46
#   5    0.93   -1.33    0.16   -0.81   -0.14    0.00    0.00      -1.20   -2.29   -0.41
#   6    0.78   -1.47    0.18   -0.22   -0.18    0.00    0.00      -0.91   -0.53   -0.43
#   7    0.52   -1.85    0.56   -0.47   -0.14    0.00    0.00      -1.38   -1.01   -0.29
#   8    0.61   -6.22    4.07   -0.50   -0.56    0.00    0.00      -2.60   -0.85   -0.95
#   9   -4.50   -1.21    0.26    3.68   -0.20    0.00    0.00      -1.96   12.08   -0.65
#  10   -0.97   -3.08    5.16   -2.67    0.11    0.00    0.00      -1.46   -9.52    0.38
#  11   13.03   -0.92    0.05   -6.23    0.66    0.00    0.00       6.59  -19.55    2.07
#  12   -3.42   -0.57    0.05    0.91   -0.09    0.00    0.00      -3.12    3.26   -0.33
#  13    2.93   -0.49    0.02   -1.44   -0.08    0.00    0.00       0.94   -5.28   -0.28
#  14    0.13   -0.39    0.02    0.10   -0.09    0.00    0.00      -0.23    0.51   -0.46
#  15    7.86   -0.47    0.03   -3.01    0.09    0.00    0.00       4.50  -15.07    0.45
#  16  -12.25   -0.01    0.00    3.14    0.08    0.00    0.00      -9.04   18.58    0.49
#  17   -0.53   -0.23    0.01    0.28   -0.04    0.00    0.00      -0.51    1.98   -0.28
#  18    2.67   -0.41    0.02   -0.91   -0.06    0.00    0.00       1.31   -5.57   -0.34
#  19    0.63   -1.38    0.36   -0.37   -0.11    0.00    0.00      -0.87   -1.31   -0.40
#  20    5.34   -2.02    0.96   -2.43   -0.13    0.00    0.00       1.72   -7.80   -0.42
#  21   -2.38   -0.67    0.05    0.98   -0.06    0.00    0.00      -2.07    4.72   -0.31
#  22    3.80   -0.66    0.04   -2.89    0.20    0.00    0.00       0.50  -10.96    0.77
#  23   -0.67   -1.19    0.33    0.11   -0.04    0.00    0.00      -1.45    0.28   -0.10
#  24   -0.07   -1.20    0.25    0.26   -0.16    0.00    0.00      -0.92    0.60   -0.37
#  25    9.08   -0.91    0.11   -4.94    0.14    0.00    0.00       3.48  -14.37    0.41
#  26   -6.78   -0.01    0.00    1.87    0.06    0.00    0.00      -4.87   17.17    0.52
#  27    0.21   -1.39    0.52    0.16   -0.14    0.00    0.00      -0.64    0.46   -0.41
#  28    0.39   -0.62    0.10   -1.25   -0.07    0.00    0.00      -1.45   -5.03   -0.29
#  29    2.10   -0.72    0.13   -1.58   -0.10    0.00    0.00      -0.18   -4.94   -0.30
#  30    0.22   -0.90    0.13    0.20   -0.18    0.00    0.00      -0.52    0.55   -0.48
#  31    0.66   -0.25    0.00   -0.33   -0.04    0.00    0.00       0.05   -3.28   -0.40
#  32    0.41   -0.18    0.00   -0.20   -0.03    0.00    0.00      -0.01   -2.59   -0.45
#  33    0.36   -0.10    0.00   -0.21   -0.02    0.00    0.00       0.03   -4.25   -0.47
#  34    0.14   -0.10    0.00   -0.19   -0.02    0.00    0.00      -0.17   -3.66   -0.47
#  35    0.59   -0.16    0.00   -0.26   -0.03    0.00    0.00       0.15   -3.68   -0.41
#  36   -0.02   -0.21    0.00   -0.04   -0.03    0.00    0.00      -0.30   -0.54   -0.40
#  37    0.53   -0.51    0.07    0.09   -0.10    0.00    0.00       0.08    0.38   -0.45
#  38   -1.22   -0.31    0.03    0.78   -0.11    0.00    0.00      -0.83    1.96   -0.28
#  39    0.04   -0.47    0.19    0.58   -0.07    0.00    0.00       0.26    2.12   -0.26
#  40   -2.12   -0.26    0.02    1.80   -0.06    0.00    0.00      -0.63    6.31   -0.22
#  41   -8.45   -0.02    0.00    3.39    0.10    0.00    0.00      -4.97   14.38    0.44
#  42   -4.87   -0.31    0.10    0.58   -0.06    0.00    0.00      -4.56    2.51   -0.26
#  43   -1.24   -0.19    0.02    0.73   -0.05    0.00    0.00      -0.74    4.00   -0.28
#  44   -2.98   -0.16    0.00    0.19   -0.04    0.00    0.00      -2.98    1.31   -0.28
#  45   -0.25   -0.24    0.09    1.09   -0.03    0.00    0.00       0.66    6.96   -0.20
#  46   -2.06   -0.09    0.00    0.43   -0.02    0.00    0.00      -1.75    5.18   -0.28
#  47   -0.80   -0.07    0.00    0.57   -0.02    0.00    0.00      -0.32    7.34   -0.24
#  48   -1.11   -0.05    0.00    0.43   -0.01    0.00    0.00      -0.75    8.55   -0.27
#  49   -4.76   -0.50    0.23    2.31   -0.08    0.00    0.00      -2.79    7.44   -0.26
#  50   -6.09   -1.81    8.54    2.37   -0.09    0.00    0.00       2.92    6.07   -0.22
#  51   -2.84   -0.92    1.35    1.76   -0.08    0.00    0.00      -0.72    4.85   -0.21
#  52   -4.23   -0.49    0.16    1.43   -0.09    0.00    0.00      -3.22    4.19   -0.26
#  53   -5.02   -0.75    0.96    2.73   -0.09    0.00    0.00      -2.17    8.00   -0.27
#  54   -5.66   -0.63    0.28    2.62   -0.13    0.00    0.00      -3.51    5.82   -0.28
#  55   -1.61   -0.43    0.15    1.87   -0.08    0.00    0.00      -0.10    5.99   -0.27
#  56   -4.83   -1.76    5.18    2.81   -0.12    0.00    0.00       1.28    6.38   -0.27
#  57   -0.22   -0.07    0.00    0.17   -0.02    0.00    0.00      -0.13    2.29   -0.28
#  58   -0.30   -0.26    0.08    0.42   -0.06    0.00    0.00      -0.12    2.04   -0.28
#  59   -0.94   -0.12    0.00    0.17   -0.03    0.00    0.00      -0.92    1.53   -0.28
#  60   -2.27   -0.45    0.29    0.65   -0.09    0.00    0.00      -1.87    2.02   -0.28
#  61   -4.44   -0.56    0.19    2.36   -0.10    0.00    0.00      -2.55    5.87   -0.26
#  62   -3.09   -0.24    0.04    1.07   -0.06    0.00    0.00      -2.27    5.04   -0.28
#  63   -0.55   -0.07    0.01    0.24   -0.02    0.00    0.00      -0.39    3.53   -0.27
#  64   -0.25   -0.01    0.00    0.04   -0.01    0.00    0.00      -0.24    1.82   -0.28
#  65   -0.07   -0.02    0.00    0.07   -0.01    0.00    0.00      -0.03    2.76   -0.28
#  66   -0.13   -0.05    0.00    0.44   -0.01    0.00    0.00       0.26    7.29   -0.21
#  67   -5.31   -0.34    0.21    1.45   -0.05    0.00    0.00      -4.04    7.52   -0.28
#  68   -1.98   -0.10    0.00    0.83   -0.03    0.00    0.00      -1.27    8.59   -0.26

@<TRIPOS>MOLECULE
          T536997        86
   68    72     0     0     0



@<TRIPOS>ATOM
      1 Cl1         9.4569   -12.1090    98.8524 Cl         1          -0.0203
      2 C1          8.4478   -11.1079    97.8557 C.ar       1          -0.0006
      3 C2          7.7751   -11.6614    96.7790 C.ar       1          -0.1005
      4 C3          6.9721   -10.8715    95.9837 C.ar       1          -0.0357
      5 C4          6.8371    -9.5106    96.2654 C.ar       1          -0.1358
      6 C5          7.5168    -8.9573    97.3519 C.ar       1          -0.0667
      7 C6          8.3139    -9.7588    98.1439 C.ar       1          -0.0425
      8 Cl2         9.1551    -9.0746    99.4998 Cl         1          -0.0291
      9 C7          5.9783    -8.6590    95.4160 C.2        1           0.5772
     10 O1          5.0397    -9.1475    94.8178 O.2        1          -0.5094
     11 N1          6.2358    -7.3408    95.3048 N.am       1          -0.7243
     12 C8          5.3844    -6.4966    94.4629 C.3        1           0.1345
     13 C9          3.9347    -6.5759    94.9262 C.3        1          -0.1578
     14 C10         3.1563    -7.0986    93.7136 C.3        1          -0.0099
     15 N2          4.0004    -6.7168    92.5544 N.4        1          -0.3880
     16 H1          3.9023    -5.7335    92.3504 H          1           0.4281
     17 C11         3.6623    -7.5270    91.3765 C.3        1           0.0458
     18 C12         4.5341    -7.1170    90.2178 C.ar       1          -0.1799
     19 C13         4.7403    -5.7975    89.9511 C.ar       1          -0.0255
     20 C14         5.5418    -5.3970    88.8858 C.ar       1          -0.2278
     21 C15         6.1453    -6.3177    88.0759 C.ar       1           0.1815
     22 O2          6.9243    -5.9111    87.0406 O.3        1          -0.3182
     23 C16         7.6107    -4.6672    87.1946 C.3        1           0.0246
     24 C17         8.9176    -4.7040    86.3998 C.3        1           0.0023
     25 N3          9.7641    -5.7956    86.8998 N.4        1          -0.3970
     26 H2          9.2009    -6.6074    87.1045 H          1           0.4309
     27 C18        10.8070    -6.1350    85.8982 C.3        1          -0.0113
     28 C19        11.8989    -6.8343    86.7462 C.3        1          -0.1448
     29 C20        11.8814    -6.0280    88.0651 C.3        1          -0.1459
     30 C21        10.4928    -5.3618    88.1115 C.3        1          -0.0090
     31 C22         5.9538    -7.6922    88.3229 C.ar       1          -0.0711
     32 C23         6.5564    -8.6693    87.5144 C.ar       1          -0.0771
     33 C24         6.3493    -9.9877    87.7832 C.ar       1          -0.1138
     34 C25         5.5463   -10.3845    88.8508 C.ar       1          -0.0629
     35 C26         4.9462    -9.4654    89.6555 C.ar       1          -0.1525
     36 C27         5.1419    -8.0949    89.4122 C.ar       1           0.0017
     37 C28         5.3703    -7.0195    93.0272 C.3        1          -0.0221
     38 H3          7.8800   -12.7142    96.5616 H          1           0.1582
     39 H4          6.4489   -11.3046    95.1441 H          1           0.1560
     40 H5          7.4160    -7.9053    97.5745 H          1           0.1414
     41 H6          6.9847    -6.9510    95.7822 H          1           0.4089
     42 H7          5.7332    -5.4642    94.4874 H          1           0.1310
     43 H8          3.8416    -7.2679    95.7632 H          1           0.1048
     44 H9          3.5733    -5.5880    95.2113 H          1           0.1213
     45 H10         3.0478    -8.1819    93.7671 H          1           0.1318
     46 H11         2.1798    -6.6186    93.6502 H          1           0.1345
     47 H12         3.8276    -8.5808    91.6007 H          1           0.1404
     48 H13         2.6153    -7.3706    91.1165 H          1           0.1406
     49 H14         4.2742    -5.0501    90.5758 H          1           0.1390
     50 H15         5.6886    -4.3439    88.6967 H          1           0.1401
     51 H16         6.9827    -3.8573    86.8237 H          1           0.0926
     52 H17         7.8314    -4.5022    88.2492 H          1           0.1147
     53 H18         8.6971    -4.8692    85.3452 H          1           0.1544
     54 H19         9.4412    -3.7552    86.5174 H          1           0.1441
     55 H20        10.4101    -6.8157    85.1450 H          1           0.1313
     56 H21        11.2014    -5.2319    85.4323 H          1           0.1368
     57 H22        11.6374    -7.8767    86.9279 H          1           0.0985
     58 H23        12.8718    -6.7585    86.2606 H          1           0.1197
     59 H24        12.0088    -6.6949    88.9179 H          1           0.1077
     60 H25        12.6652    -5.2705    88.0559 H          1           0.1070
     61 H26        10.6013    -4.2773    88.1112 H          1           0.1336
     62 H27         9.9549    -5.6835    89.0034 H          1           0.1346
     63 H28         7.1810    -8.3764    86.6834 H          1           0.1355
     64 H29         6.8137   -10.7371    87.1596 H          1           0.1388
     65 H30         5.3977   -11.4368    89.0424 H          1           0.1394
     66 H31         4.3262    -9.7874    90.4792 H          1           0.1274
     67 H32         6.1087    -6.4942    92.4215 H          1           0.1480
     68 H33         5.5524    -8.0940    93.0095 H          1           0.1408
@<TRIPOS>BOND
     1    1    2 1
     2    2    7 ar
     3    2    3 ar
     4    3    4 ar
     5    3   38 1
     6    4    5 ar
     7    4   39 1
     8    5    6 ar
     9    5    9 1
    10    6    7 ar
    11    6   40 1
    12    7    8 1
    13    9   10 2
    14    9   11 am
    15   11   12 1
    16   11   41 1
    17   12   37 1
    18   12   13 1
    19   12   42 1
    20   13   14 1
    21   13   43 1
    22   13   44 1
    23   14   15 1
    24   14   45 1
    25   14   46 1
    26   15   16 1
    27   15   17 1
    28   15   37 1
    29   17   18 1
    30   17   47 1
    31   17   48 1
    32   18   36 ar
    33   18   19 ar
    34   19   20 ar
    35   19   49 1
    36   20   21 ar
    37   20   50 1
    38   21   22 1
    39   21   31 ar
    40   22   23 1
    41   23   24 1
    42   23   51 1
    43   23   52 1
    44   24   25 1
    45   24   53 1
    46   24   54 1
    47   25   26 1
    48   25   30 1
    49   25   27 1
    50   27   28 1
    51   27   55 1
    52   27   56 1
    53   28   29 1
    54   28   57 1
    55   28   58 1
    56   29   30 1
    57   29   59 1
    58   29   60 1
    59   30   61 1
    60   30   62 1
    61   31   36 ar
    62   31   32 ar
    63   32   33 ar
    64   32   63 1
    65   33   34 ar
    66   33   64 1
    67   34   35 ar
    68   34   65 1
    69   35   36 ar
    70   35   66 1
    71   37   67 1
    72   37   68 1
##########                 Name:              T537280
##########          Protonation:                   99
##########               SMILES:   c1ccc(cc1)C[NH2+]C[C@H]2CC[NH+](CC2)CCc3c4c([nH]c3)ccc(c4)F
##########            Long Name:   yl-[[1-[2-(5-fluoro-1H-indol-3-yl)ethyl]piperidin-1-ium-4-yl]methyl]ammonium
##########          FlexRecCode: 1
##########               Number:                  181
##########   Ligand Source File: /raidb/db2/rgc/tcams/tcams-0001664.db2.gz
##########           GlobalRank: 422
##########                 Rank:                    1
##########               Setnum:                  366
##########             Matchnum:                 2056
##########                Cloud:                    1
##########        Electrostatic:           -41.947159
##########        Van der Waals:           -24.792986
##########  Ligand Polar Desolv:             6.491236
########## Ligand Apolar Desolv:            -3.766781
##########      Internal Energy:             0.000000
##########      Receptor Energy: 0.0
########## Receptor Desolvation:             0.000000
########## Receptor Hydrophobic:             0.000000
##########         Total Energy: -64.02
##########        Ligand Charge:             2.000000
##########            Arbitrary:    +999.9990
##########     heavy atom count:   27
##########           pose count:    1
##########        Ligand Energy:             0.000000
# num electro vdwattr vdwrepu polsolv apolsol rdesolv rhydroe totalscore fullpol fullapo
#   1    0.24   -0.53    0.08   -0.58   -0.13    0.00    0.00      -0.92   -2.09   -0.48
#   2   -0.22   -1.15    0.13   -0.16   -0.12    0.00    0.00      -1.52   -0.44   -0.34
#   3    0.29   -3.13    1.96   -1.27   -0.22    0.00    0.00      -2.38   -2.65   -0.46
#   4    0.29   -3.65    2.57   -1.05   -0.25    0.00    0.00      -2.08   -2.00   -0.47
#   5   -0.37   -2.25    0.64    0.35   -0.35    0.00    0.00      -1.98    0.77   -0.78
#   6    9.56   -3.05    1.53   -7.41    0.57    0.00    0.00       1.21  -15.10    1.17
#   7   -2.12   -1.97    0.52    1.24   -0.41    0.00    0.00      -2.75    2.96   -0.99
#   8    1.43   -1.33    0.32   -1.60   -0.12    0.00    0.00      -1.31   -5.24   -0.39
#   9    0.65   -0.45    0.06   -0.54   -0.05    0.00    0.00      -0.33   -2.72   -0.23
#  10    0.36   -0.38    0.02    0.03   -0.06    0.00    0.00      -0.03    0.13   -0.28
#  11    5.05   -0.28    0.01   -2.34    0.06    0.00    0.00       2.50  -16.92    0.43
#  12   -3.80    0.00    0.00    0.90    0.02    0.00    0.00      -2.88   20.86    0.56
#  13    0.11   -0.12    0.00   -0.06   -0.03    0.00    0.00      -0.09   -0.82   -0.39
#  14    1.71   -0.16    0.00   -0.69   -0.02    0.00    0.00       0.85   -7.20   -0.21
#  15    2.41   -0.36    0.02   -1.04   -0.03    0.00    0.00       1.01   -5.46   -0.15
#  16    0.16   -0.45    0.06    0.00   -0.07    0.00    0.00      -0.30   -0.01   -0.37
#  17   11.53   -0.64    0.07   -5.91    0.17    0.00    0.00       5.23  -24.74    0.73
#  18   -5.75   -0.01    0.00    2.68    0.07    0.00    0.00      -3.01   23.23    0.57
#  19  -12.96   -0.02    0.00    5.19    0.10    0.00    0.00      -7.68   23.20    0.46
#  20   -1.05   -0.45    0.03    0.80   -0.09    0.00    0.00      -0.78    3.53   -0.42
#  21    3.29   -0.85    0.04   -1.11   -0.11    0.00    0.00       1.26   -3.64   -0.37
#  22    1.38   -1.21    0.11   -1.08   -0.17    0.00    0.00      -0.97   -2.83   -0.45
#  23    1.63   -2.54    0.83   -2.03   -0.23    0.00    0.00      -2.34   -4.21   -0.47
#  24    1.14   -2.81    1.06   -1.87   -0.24    0.00    0.00      -2.73   -3.69   -0.47
#  25    1.89   -2.00    1.03   -1.95   -0.22    0.00    0.00      -1.24   -4.22   -0.47
#  26    1.92   -1.12    0.10   -1.05   -0.17    0.00    0.00      -0.32   -2.75   -0.45
#  27    4.54   -1.06    0.33   -2.50   -0.05    0.00    0.00       1.27   -8.66   -0.19
#  28    0.07   -0.57    0.08   -0.10   -0.10    0.00    0.00      -0.61   -0.42   -0.42
#  29    0.31   -1.39    0.30   -0.68   -0.14    0.00    0.00      -1.60   -2.12   -0.44
#  30    0.37   -0.85    0.09   -0.47   -0.13    0.00    0.00      -0.98   -1.77   -0.48
#  31   -0.27   -1.15    1.03    0.51   -0.15    0.00    0.00      -0.02    0.98   -0.28
#  32   -0.45   -1.21    1.67    1.17   -0.16    0.00    0.00       1.02    2.06   -0.28
#  33   -9.20   -0.08    0.01    5.19    0.27    0.00    0.00      -3.81   11.17    0.59
#  34   -5.74   -0.35    0.04    3.82   -0.11    0.00    0.00      -2.33   10.02   -0.28
#  35   -0.57   -0.07    0.00    0.46   -0.02    0.00    0.00      -0.20    6.37   -0.22
#  36   -1.06   -0.22    0.08    0.43   -0.04    0.00    0.00      -0.82    2.91   -0.28
#  37   -3.28   -0.16    0.01    0.81   -0.05    0.00    0.00      -2.67    4.70   -0.28
#  38   -3.03   -0.15    0.01    1.38   -0.02    0.00    0.00      -1.82    8.69   -0.15
#  39   -0.83   -0.03    0.00    0.18   -0.01    0.00    0.00      -0.68    5.87   -0.21
#  40   -0.94   -0.03    0.00    0.21   -0.01    0.00    0.00      -0.76    6.93   -0.28
#  41   -1.42   -0.06    0.00    0.31   -0.01    0.00    0.00      -1.18    5.70   -0.22
#  42   -0.89   -0.03    0.00    0.16   -0.01    0.00    0.00      -0.77    5.04   -0.28
#  43   -1.56   -0.09    0.01    0.57   -0.02    0.00    0.00      -1.10    6.84   -0.28
#  44   -4.79   -0.33    0.15    1.59   -0.05    0.00    0.00      -3.42    8.70   -0.28
#  45   -2.01   -0.06    0.00    0.47   -0.02    0.00    0.00      -1.62    8.03   -0.28
#  46   -4.51   -0.20    0.03    1.40   -0.05    0.00    0.00      -3.33    8.34   -0.28
#  47   -1.88   -0.10    0.01    0.75   -0.03    0.00    0.00      -1.25    7.93   -0.28
#  48   -1.99   -0.19    0.01    1.31   -0.06    0.00    0.00      -0.91    6.52   -0.28
#  49   -1.87   -1.11    2.09    0.83   -0.14    0.00    0.00      -0.20    1.66   -0.28
#  50   -2.15   -0.79    0.27    0.37   -0.16    0.00    0.00      -2.46    0.66   -0.28
#  51   -2.36   -0.44    0.20    0.64   -0.10    0.00    0.00      -2.06    1.81   -0.28
#  52   -3.23   -0.27    0.04    1.86   -0.08    0.00    0.00      -1.68    6.94   -0.28
#  53   -3.93   -0.56    0.37    1.62   -0.06    0.00    0.00      -2.57    5.63   -0.21
#  54   -3.46   -0.75    0.79    2.20   -0.08    0.00    0.00      -1.30    6.49   -0.24
#  55   -1.67   -0.19    0.04    1.03   -0.04    0.00    0.00      -0.82    7.17   -0.28
#  56   -2.58   -0.23    0.04    1.13   -0.06    0.00    0.00      -1.70    5.31   -0.28
#  57   -0.35   -0.09    0.01    0.40   -0.02    0.00    0.00      -0.06    4.60   -0.28

@<TRIPOS>MOLECULE
          T537280        99
   57    60     0     0     0



@<TRIPOS>ATOM
      1 F1          2.8444    -6.9760    83.8349 F          1          -0.1327
      2 C1          3.7879    -6.0778    84.1929 C.ar       1           0.0943
      3 C2          3.6708    -4.7529    83.7878 C.ar       1          -0.1248
      4 C3          4.6226    -3.8234    84.1435 C.ar       1          -0.0865
      5 C4          5.7140    -4.2073    84.9155 C.ar       1           0.0841
      6 N1          6.8029    -3.5292    85.4193 N.pl3      1          -0.5830
      7 C5          7.5984    -4.3881    86.1275 C.2        1           0.0918
      8 C6          7.0694    -5.6218    86.1098 C.2        1          -0.2079
      9 C7          7.6384    -6.8505    86.7710 C.3        1          -0.0586
     10 C8          8.0907    -6.5029    88.1906 C.3        1          -0.0193
     11 N2          8.6454    -7.7007    88.8351 N.4        1          -0.3846
     12 H1          9.4349    -8.0332    88.3021 H          1           0.4359
     13 C9          7.6170    -8.7467    88.8877 C.3        1          -0.0126
     14 C10         6.3853    -8.2198    89.6273 C.3        1          -0.1413
     15 C11         6.7835    -7.8212    91.0513 C.3        1          -0.1285
     16 C12         5.5748    -7.2196    91.7711 C.3        1          -0.0070
     17 N3          5.7896    -7.2799    93.2230 N.4        1          -0.5112
     18 H2          5.9055    -8.2414    93.5063 H          1           0.4303
     19 H3          6.6185    -6.7566    93.4624 H          1           0.4243
     20 C13         4.6292    -6.7023    93.9141 C.3        1           0.0482
     21 C14         4.8496    -6.7642    95.4036 C.ar       1          -0.1772
     22 C15         3.7697    -6.8902    96.2574 C.ar       1          -0.0922
     23 C16         3.9719    -6.9470    97.6237 C.ar       1          -0.1122
     24 C17         5.2539    -6.8782    98.1362 C.ar       1          -0.0760
     25 C18         6.3338    -6.7530    97.2824 C.ar       1          -0.1130
     26 C19         6.1319    -6.7006    95.9158 C.ar       1          -0.0939
     27 C20         7.9083    -6.7842    90.9849 C.3        1          -0.1641
     28 C21         9.0820    -7.3647    90.1956 C.3        1          -0.0042
     29 C22         5.8340    -5.5470    85.3261 C.ar       1          -0.0754
     30 C23         4.8585    -6.4781    84.9625 C.ar       1          -0.1263
     31 H4          2.8255    -4.4499    83.1879 H          1           0.1480
     32 H5          4.5218    -2.7969    83.8230 H          1           0.1390
     33 H6          6.9791    -2.5841    85.2911 H          1           0.4267
     34 H7          8.5162    -4.1142    86.6264 H          1           0.1733
     35 H8          6.8747    -7.6271    86.8130 H          1           0.0918
     36 H9          8.4915    -7.2106    86.1958 H          1           0.0955
     37 H10         8.8544    -5.7261    88.1487 H          1           0.1347
     38 H11         7.2376    -6.1428    88.7657 H          1           0.1297
     39 H12         7.3370    -9.0317    87.8736 H          1           0.1437
     40 H13         8.0109    -9.6169    89.4129 H          1           0.1360
     41 H14         5.9904    -7.3499    89.1027 H          1           0.1021
     42 H15         5.6238    -8.9986    89.6668 H          1           0.1243
     43 H16         7.1293    -8.7017    91.5930 H          1           0.1154
     44 H17         5.4497    -6.1809    91.4651 H          1           0.1380
     45 H18         4.6795    -7.7849    91.5125 H          1           0.1450
     46 H19         4.5040    -5.6637    93.6082 H          1           0.1392
     47 H20         3.7339    -7.2677    93.6555 H          1           0.1412
     48 H21         2.7681    -6.9440    95.8570 H          1           0.1317
     49 H22         3.1282    -7.0448    98.2908 H          1           0.1392
     50 H23         5.4117    -6.9218    99.2037 H          1           0.1396
     51 H24         7.3353    -6.6989    97.6828 H          1           0.1386
     52 H25         6.9759    -6.6065    95.2485 H          1           0.1300
     53 H26         7.5451    -5.8844    90.4885 H          1           0.1055
     54 H27         8.2355    -6.5368    91.9948 H          1           0.1072
     55 H28         9.4446    -8.2644    90.6929 H          1           0.1361
     56 H29         9.8843    -6.6285    90.1478 H          1           0.1405
     57 H30         4.9447    -7.5069    85.2796 H          1           0.1318
@<TRIPOS>BOND
     1    1    2 1
     2    2   30 ar
     3    2    3 ar
     4    3    4 ar
     5    3   31 1
     6    4    5 ar
     7    4   32 1
     8    5   29 ar
     9    5    6 1
    10    6    7 1
    11    6   33 1
    12    7    8 2
    13    7   34 1
    14    8    9 1
    15    8   29 1
    16    9   10 1
    17    9   35 1
    18    9   36 1
    19   10   11 1
    20   10   37 1
    21   10   38 1
    22   11   12 1
    23   11   28 1
    24   11   13 1
    25   13   14 1
    26   13   39 1
    27   13   40 1
    28   14   15 1
    29   14   41 1
    30   14   42 1
    31   15   16 1
    32   15   27 1
    33   15   43 1
    34   16   17 1
    35   16   44 1
    36   16   45 1
    37   17   18 1
    38   17   19 1
    39   17   20 1
    40   20   21 1
    41   20   46 1
    42   20   47 1
    43   21   26 ar
    44   21   22 ar
    45   22   23 ar
    46   22   48 1
    47   23   24 ar
    48   23   49 1
    49   24   25 ar
    50   24   50 1
    51   25   26 ar
    52   25   51 1
    53   26   52 1
    54   27   28 1
    55   27   53 1
    56   27   54 1
    57   28   55 1
    58   28   56 1
    59   29   30 ar
    60   30   57 1
##########                 Name:              T539005
##########          Protonation:                   97
##########               SMILES:   CCCCNC(=O)c1cc(ccc1c2cccc(c2)C[NH2+]Cc3ccc(cc3)c4ccccc4)C[NH2+]C5CCCCC5
##########            Long Name:   clohexylammonio)methyl]phenyl]phenyl]methyl-[(4-phenylphenyl)methyl]ammonium
##########          FlexRecCode: 1
##########               Number:                  174
##########   Ligand Source File: /raidb/db2/rgc/tcams/tcams-0001956.db2.gz
##########           GlobalRank: 422
##########                 Rank:                    1
##########               Setnum:                  124
##########             Matchnum:                 5993
##########                Cloud:                    1
##########        Electrostatic:           -38.832920
##########        Van der Waals:           -29.521749
##########  Ligand Polar Desolv:             9.018289
########## Ligand Apolar Desolv:            -4.686872
##########      Internal Energy:             0.000000
##########      Receptor Energy: 0.0
########## Receptor Desolvation:             0.000000
########## Receptor Hydrophobic:             0.000000
##########         Total Energy: -64.02
##########        Ligand Charge:             2.000000
##########            Arbitrary:    +999.9990
##########     heavy atom count:   42
##########           pose count:    1
##########        Ligand Energy:             0.000000
# num electro vdwattr vdwrepu polsolv apolsol rdesolv rhydroe totalscore fullpol fullapo
#   1    0.04   -0.44    0.03   -0.60   -0.05    0.00    0.00      -1.00   -2.48   -0.19
#   2    0.01   -0.37    0.06   -0.37   -0.04    0.00    0.00      -0.72   -2.19   -0.25
#   3    0.03   -0.25    0.03   -0.25   -0.02    0.00    0.00      -0.46   -2.21   -0.22
#   4   -0.04   -0.16    0.02    0.24   -0.04    0.00    0.00       0.02    2.64   -0.42
#   5    0.35   -0.12    0.00   -0.98    0.14    0.00    0.00      -0.61  -16.65    2.31
#   6   -0.74   -0.17    0.01    0.88   -0.05    0.00    0.00      -0.07   11.59   -0.63
#   7    0.24   -0.45    0.08   -1.33    0.04    0.00    0.00      -1.42  -10.42    0.31
#   8    0.67   -0.13    0.00   -0.25   -0.02    0.00    0.00       0.27   -4.63   -0.41
#   9    0.27   -0.10    0.00   -0.08   -0.02    0.00    0.00       0.07   -1.68   -0.43
#  10    0.92   -0.16    0.00   -0.28   -0.02    0.00    0.00       0.46   -4.12   -0.37
#  11   -0.08   -0.09    0.00    0.16   -0.03    0.00    0.00      -0.05    2.21   -0.40
#  12    0.88   -0.11    0.00   -1.18    0.04    0.00    0.00      -0.39  -21.12    0.63
#  13   -1.54    0.00    0.00    0.76    0.02    0.00    0.00      -0.76   21.10    0.56
#  14   -1.09    0.00    0.00    0.61    0.02    0.00    0.00      -0.46   20.47    0.56
#  15   -0.02   -0.07    0.00    0.13   -0.01    0.00    0.00       0.02    2.99   -0.22
#  16    0.04   -0.11    0.00   -0.31   -0.01    0.00    0.00      -0.39   -4.85   -0.21
#  17   -0.03   -0.21    0.01   -0.45   -0.03    0.00    0.00      -0.72   -3.37   -0.25
#  18   -0.02   -0.22    0.01   -0.41   -0.03    0.00    0.00      -0.66   -3.26   -0.25
#  19    0.14   -0.18    0.00   -0.35   -0.03    0.00    0.00      -0.41   -3.27   -0.25
#  20    0.18   -0.11    0.00   -0.30   -0.02    0.00    0.00      -0.25   -4.57   -0.23
#  21    0.69   -0.28    0.01   -0.19   -0.05    0.00    0.00       0.18   -1.68   -0.46
#  22    1.58   -0.38    0.01   -0.61   -0.07    0.00    0.00       0.54   -4.12   -0.46
#  23   -0.41   -0.22    0.00   -0.02   -0.03    0.00    0.00      -0.68   -0.25   -0.37
#  24    0.66   -0.32    0.01   -0.23   -0.04    0.00    0.00       0.08   -1.80   -0.29
#  25    0.10   -0.31    0.01   -0.24   -0.05    0.00    0.00      -0.50   -1.77   -0.33
#  26    0.55   -0.47    0.03   -0.70   -0.08    0.00    0.00      -0.67   -3.97   -0.47
#  27    0.83   -0.59    0.06   -0.53   -0.09    0.00    0.00      -0.32   -2.70   -0.45
#  28    3.09   -0.55    0.03   -0.76   -0.07    0.00    0.00       1.73   -3.83   -0.37
#  29   -1.01   -0.42    0.02    0.62   -0.09    0.00    0.00      -0.88    2.75   -0.42
#  30   18.68   -1.44    0.48   -7.36    0.27    0.00    0.00      10.63  -20.10    0.74
#  31  -22.46   -0.08    0.01    5.19    0.17    0.00    0.00     -17.16   17.79    0.57
#  32  -15.08   -0.04    0.00    6.14    0.19    0.00    0.00      -8.79   18.57    0.57
#  33   -1.54   -1.06    0.12    1.21   -0.18    0.00    0.00      -1.46    2.79   -0.42
#  34    4.85   -1.37    0.18   -1.27   -0.14    0.00    0.00       2.24   -3.26   -0.37
#  35    1.70   -1.84    0.45   -1.03   -0.19    0.00    0.00      -0.90   -2.47   -0.45
#  36    1.71   -1.89    0.42   -1.44   -0.20    0.00    0.00      -1.40   -3.18   -0.44
#  37   -0.16   -1.37    0.17   -0.68   -0.17    0.00    0.00      -2.22   -1.60   -0.41
#  38    2.58   -1.61    0.33   -1.29   -0.18    0.00    0.00      -0.17   -3.21   -0.44
#  39    2.64   -1.47    0.26   -0.95   -0.18    0.00    0.00       0.29   -2.31   -0.45
#  40    1.15   -1.56    0.17   -0.39   -0.20    0.00    0.00      -0.83   -0.79   -0.41
#  41    1.91   -2.41    0.44   -0.95   -0.26    0.00    0.00      -1.26   -1.63   -0.44
#  42    2.48   -3.06    1.01   -0.89   -0.28    0.00    0.00      -0.73   -1.49   -0.47
#  43    1.46   -2.41    0.86   -0.89   -0.26    0.00    0.00      -1.24   -1.62   -0.47
#  44    1.17   -1.96    0.85   -0.74   -0.23    0.00    0.00      -0.91   -1.54   -0.47
#  45    0.95   -1.64    0.35   -0.66   -0.18    0.00    0.00      -1.18   -1.65   -0.44
#  46    1.40   -0.50    0.03   -0.40   -0.07    0.00    0.00       0.46   -2.42   -0.44
#  47   -0.01   -0.15    0.01    0.05   -0.05    0.00    0.00      -0.15    0.28   -0.28
#  48   -0.02   -0.06    0.00    0.05   -0.01    0.00    0.00      -0.05    1.00   -0.28
#  49   -0.06   -0.24    0.04    0.23   -0.06    0.00    0.00      -0.10    1.04   -0.28
#  50   -0.02   -0.05    0.00    0.03   -0.01    0.00    0.00      -0.04    0.70   -0.28
#  51    0.01   -0.29    0.15    0.17   -0.06    0.00    0.00      -0.02    0.79   -0.28
#  52   -0.01   -0.14    0.04    0.21   -0.03    0.00    0.00       0.07    2.15   -0.28
#  53   -0.03   -0.03    0.00    0.06   -0.01    0.00    0.00       0.00    2.07   -0.28
#  54   -0.03   -0.02    0.00    0.01   -0.01    0.00    0.00      -0.05    0.35   -0.28
#  55   -0.01   -0.10    0.02    0.05   -0.02    0.00    0.00      -0.07    0.56   -0.28
#  56   -0.27    0.00    0.00    0.24    0.01    0.00    0.00      -0.03   12.31    0.44
#  57   -0.35   -0.01    0.00    0.15    0.00    0.00    0.00      -0.22    6.99   -0.22
#  58   -0.19   -0.02    0.00    0.18   -0.01    0.00    0.00      -0.03    7.76   -0.22
#  59   -0.29   -0.05    0.00    0.43   -0.01    0.00    0.00       0.07    8.19   -0.28
#  60   -0.13   -0.01    0.00    0.14   -0.01    0.00    0.00       0.00    7.01   -0.28
#  61    0.00   -0.04    0.00    0.15   -0.01    0.00    0.00       0.10    3.55   -0.28
#  62   -0.01   -0.02    0.00    0.12    0.00    0.00    0.00       0.09    5.29   -0.21
#  63   -0.09   -0.08    0.01    0.05   -0.02    0.00    0.00      -0.13    0.67   -0.28
#  64    0.13   -0.09    0.01    0.15   -0.02    0.00    0.00       0.17    1.74   -0.28
#  65    0.10   -0.16    0.04    0.17   -0.04    0.00    0.00       0.11    1.17   -0.28
#  66    0.01   -0.04    0.00   -0.02   -0.01    0.00    0.00      -0.06   -0.36   -0.28
#  67   -0.22   -0.06    0.00    0.02   -0.01    0.00    0.00      -0.27    0.31   -0.28
#  68   -0.10   -0.07    0.00    0.11   -0.02    0.00    0.00      -0.08    1.64   -0.28
#  69   -0.08   -0.02    0.00    0.11   -0.01    0.00    0.00       0.00    4.11   -0.28
#  70   -0.15   -0.04    0.00    0.14   -0.01    0.00    0.00      -0.07    3.15   -0.28
#  71   -1.86   -0.07    0.00    0.45   -0.02    0.00    0.00      -1.50    7.68   -0.28
#  72   -3.21   -0.15    0.01    0.67   -0.04    0.00    0.00      -2.72    4.30   -0.28
#  73   -0.35   -0.04    0.00    0.03   -0.01    0.00    0.00      -0.37    0.75   -0.28
#  74   -0.23   -0.09    0.01    0.11   -0.03    0.00    0.00      -0.23    1.14   -0.28
#  75   -1.31   -0.13    0.02    0.60   -0.04    0.00    0.00      -0.86    4.72   -0.28
#  76   -2.42   -0.09    0.00    0.70   -0.02    0.00    0.00      -1.84    8.31   -0.28
#  77   -2.55   -0.10    0.00    0.74   -0.03    0.00    0.00      -1.94    7.11   -0.28
#  78   -5.21   -0.55    0.11    3.97   -0.14    0.00    0.00      -1.82    8.19   -0.28
#  79   -3.86   -0.28    0.03    1.96   -0.07    0.00    0.00      -2.23    7.32   -0.28
#  80   -2.92   -0.42    0.10    2.04   -0.10    0.00    0.00      -1.30    5.60   -0.28
#  81   -1.76   -0.57    0.19    0.79   -0.10    0.00    0.00      -1.44    1.73   -0.22
#  82   -3.12   -0.88    1.00    0.81   -0.08    0.00    0.00      -2.27    2.28   -0.22
#  83   -5.97   -0.71    1.16    2.15   -0.09    0.00    0.00      -3.46    6.63   -0.28
#  84   -2.54   -0.69    0.20    1.14   -0.12    0.00    0.00      -2.01    2.01   -0.22
#  85   -3.39   -1.15    1.02    0.84   -0.17    0.00    0.00      -2.85    1.37   -0.28
#  86   -1.61   -0.83    1.57    0.61   -0.14    0.00    0.00      -0.40    1.19   -0.28
#  87   -0.98   -0.32    0.05    0.54   -0.09    0.00    0.00      -0.80    1.66   -0.28
#  88   -0.64   -0.29    0.03    0.65   -0.06    0.00    0.00      -0.30    2.48   -0.22
#  89   -2.79   -0.10    0.01    0.65   -0.03    0.00    0.00      -2.27    6.43   -0.28

@<TRIPOS>MOLECULE
          T539005        97
   89    93     0     0     0



@<TRIPOS>ATOM
      1 C1          3.5850   -15.5962    91.0547 C.3        1          -0.1557
      2 C2          2.9488   -14.2982    90.5532 C.3        1          -0.1225
      3 C3          4.0340   -13.3898    89.9715 C.3        1          -0.1327
      4 C4          3.3978   -12.0920    89.4699 C.3        1           0.1166
      5 N1          4.4369   -11.2222    88.9130 N.am       1          -0.7202
      6 C5          5.0731   -10.3386    89.7074 C.2        1           0.5490
      7 O1          4.7848   -10.2633    90.8860 O.2        1          -0.5152
      8 C6          6.1200    -9.4621    89.1460 C.ar       1          -0.1172
      9 C7          7.2558   -10.0152    88.5540 C.ar       1          -0.0600
     10 C8          8.2307    -9.1915    88.0312 C.ar       1          -0.1614
     11 C9          9.4560    -9.7932    87.3927 C.3        1           0.0395
     12 N2         10.4995    -9.9748    88.4107 N.4        1          -0.5080
     13 H1         10.7352    -9.0804    88.8140 H          1           0.4267
     14 H2         10.1602   -10.5910    89.1340 H          1           0.4262
     15 C10        11.6940   -10.5613    87.7884 C.3        1           0.0240
     16 C11        12.5681   -11.2036    88.8674 C.3        1          -0.1408
     17 C12        12.9917   -10.1387    89.8812 C.3        1          -0.1186
     18 C13        13.7854    -9.0425    89.1676 C.3        1          -0.1330
     19 C14        12.9114    -8.4002    88.0885 C.3        1          -0.1183
     20 C15        12.4877    -9.4650    87.0748 C.3        1          -0.1407
     21 C16         8.0905    -7.8147    88.0892 C.ar       1          -0.0633
     22 C17         6.9736    -7.2496    88.6711 C.ar       1          -0.1061
     23 C18         5.9760    -8.0643    89.1995 C.ar       1           0.0374
     24 C19         4.7724    -7.4619    89.8196 C.ar       1          -0.0536
     25 C20         3.6429    -7.1995    89.0449 C.ar       1          -0.0166
     26 C21         2.5249    -6.6392    89.6279 C.ar       1          -0.1136
     27 C22         2.5233    -6.3372    90.9781 C.ar       1          -0.0750
     28 C23         3.6407    -6.5951    91.7516 C.ar       1          -0.1679
     29 C24         3.6308    -6.2631    93.2215 C.3        1           0.0458
     30 N3          4.1151    -4.8901    93.4167 N.4        1          -0.5088
     31 H3          5.0558    -4.8114    93.0605 H          1           0.4277
     32 H4          3.5137    -4.2478    92.9228 H          1           0.4250
     33 C25         4.1054    -4.5665    94.8497 C.3        1           0.0470
     34 C26         5.0037    -5.5257    95.5872 C.ar       1          -0.1774
     35 C27         4.5721    -6.1054    96.7667 C.ar       1          -0.0835
     36 C28         5.3908    -6.9844    97.4464 C.ar       1          -0.1140
     37 C29         6.6539    -7.2875    96.9425 C.ar       1           0.0103
     38 C30         7.0835    -6.7007    95.7540 C.ar       1          -0.1153
     39 C31         6.2545    -5.8273    95.0795 C.ar       1          -0.0853
     40 C32         7.5387    -8.2315    97.6692 C.ar       1          -0.0798
     41 C33         8.4204    -7.7580    98.6386 C.ar       1          -0.0997
     42 C34         9.2408    -8.6405    99.3118 C.ar       1          -0.1167
     43 C35         9.1890    -9.9928    99.0253 C.ar       1          -0.0992
     44 C36         8.3158   -10.4683    98.0636 C.ar       1          -0.1176
     45 C37         7.4866    -9.5954    97.3887 C.ar       1          -0.1006
     46 C38         4.7627    -7.1607    91.1807 C.ar       1          -0.0744
     47 H5          2.8120   -16.2433    91.4691 H          1           0.0620
     48 H6          4.0774   -16.1036    90.2253 H          1           0.0557
     49 H7          4.3189   -15.3662    91.8272 H          1           0.0555
     50 H8          2.2150   -14.5282    89.7806 H          1           0.0674
     51 H9          2.4563   -13.7907    91.3826 H          1           0.0667
     52 H10         4.7678   -13.1599    90.7440 H          1           0.0698
     53 H11         4.5265   -13.8974    89.1420 H          1           0.0699
     54 H12         2.6639   -12.3219    88.6974 H          1           0.0747
     55 H13         2.9053   -11.5845    90.2994 H          1           0.0734
     56 H14         4.6669   -11.2823    87.9727 H          1           0.3969
     57 H15         7.3717   -11.0879    88.5055 H          1           0.1383
     58 H16         9.2015   -10.7594    86.9571 H          1           0.1444
     59 H17         9.8227    -9.1276    86.6113 H          1           0.1414
     60 H18        11.3921   -11.3197    87.0661 H          1           0.1410
     61 H19        12.0026   -11.9845    89.3758 H          1           0.0877
     62 H20        13.4544   -11.6387    88.4057 H          1           0.0860
     63 H21        12.1054    -9.7036    90.3429 H          1           0.0861
     64 H22        13.6144   -10.5963    90.6499 H          1           0.0754
     65 H23        14.0873    -8.2840    89.8899 H          1           0.0709
     66 H24        14.6717    -9.4777    88.7059 H          1           0.0815
     67 H25        12.0251    -7.9650    88.5503 H          1           0.0868
     68 H26        13.4769    -7.6192    87.5803 H          1           0.0754
     69 H27        13.3739    -9.9001    86.6132 H          1           0.0874
     70 H28        11.8651    -9.0075    86.3061 H          1           0.0876
     71 H29         8.8601    -7.1791    87.6767 H          1           0.1438
     72 H30         6.8717    -6.1753    88.7127 H          1           0.1465
     73 H31         3.6433    -7.4343    87.9907 H          1           0.1239
     74 H32         1.6496    -6.4355    89.0291 H          1           0.1374
     75 H33         1.6462    -5.8978    91.4300 H          1           0.1338
     76 H34         2.6146    -6.3481    93.6063 H          1           0.1372
     77 H35         4.2805    -6.9569    93.7550 H          1           0.1405
     78 H36         4.4648    -3.5477    94.9944 H          1           0.1374
     79 H37         3.0891    -4.6515    95.2344 H          1           0.1391
     80 H38         3.5930    -5.8694    97.1566 H          1           0.1337
     81 H39         5.0530    -7.4363    98.3673 H          1           0.1388
     82 H40         8.0618    -6.9319    95.3592 H          1           0.1376
     83 H41         6.5847    -5.3755    94.1558 H          1           0.1314
     84 H42         8.4622    -6.7024    98.8626 H          1           0.1267
     85 H43         9.9245    -8.2746   100.0634 H          1           0.1315
     86 H44         9.8328   -10.6798    99.5542 H          1           0.1309
     87 H45         8.2797   -11.5250    97.8435 H          1           0.1307
     88 H46         6.8021    -9.9682    96.6411 H          1           0.1256
     89 H47         5.6330    -7.3659    91.7865 H          1           0.1289
@<TRIPOS>BOND
     1    1    2 1
     2    1   47 1
     3    1   48 1
     4    1   49 1
     5    2    3 1
     6    2   50 1
     7    2   51 1
     8    3    4 1
     9    3   52 1
    10    3   53 1
    11    4    5 1
    12    4   54 1
    13    4   55 1
    14    5    6 am
    15    5   56 1
    16    6    7 2
    17    6    8 1
    18    8   23 ar
    19    8    9 ar
    20    9   10 ar
    21    9   57 1
    22   10   11 1
    23   10   21 ar
    24   11   12 1
    25   11   58 1
    26   11   59 1
    27   12   13 1
    28   12   14 1
    29   12   15 1
    30   15   20 1
    31   15   16 1
    32   15   60 1
    33   16   17 1
    34   16   61 1
    35   16   62 1
    36   17   18 1
    37   17   63 1
    38   17   64 1
    39   18   19 1
    40   18   65 1
    41   18   66 1
    42   19   20 1
    43   19   67 1
    44   19   68 1
    45   20   69 1
    46   20   70 1
    47   21   22 ar
    48   21   71 1
    49   22   23 ar
    50   22   72 1
    51   23   24 1
    52   24   46 ar
    53   24   25 ar
    54   25   26 ar
    55   25   73 1
    56   26   27 ar
    57   26   74 1
    58   27   28 ar
    59   27   75 1
    60   28   29 1
    61   28   46 ar
    62   29   30 1
    63   29   76 1
    64   29   77 1
    65   30   31 1
    66   30   32 1
    67   30   33 1
    68   33   34 1
    69   33   78 1
    70   33   79 1
    71   34   39 ar
    72   34   35 ar
    73   35   36 ar
    74   35   80 1
    75   36   37 ar
    76   36   81 1
    77   37   38 ar
    78   37   40 1
    79   38   39 ar
    80   38   82 1
    81   39   83 1
    82   40   45 ar
    83   40   41 ar
    84   41   42 ar
    85   41   84 1
    86   42   43 ar
    87   42   85 1
    88   43   44 ar
    89   43   86 1
    90   44   45 ar
    91   44   87 1
    92   45   88 1
    93   46   89 1
##########                 Name:              T539731
##########          Protonation:                   38
##########               SMILES:   CCCCc1[nH+]/c(=N/c2ccccc2)/[nH]c(c1)N[C@H]3CC[NH+](CC3)C
##########            Long Name:   yl-N-(1-methylpiperidin-1-ium-4-yl)-2-phenylimino-1H-pyrimidin-3-ium-6-amine
##########          FlexRecCode: 1
##########               Number:                    7
##########   Ligand Source File: /raidb/db2/rgc/tcams/tcams-0001945.db2.gz
##########           GlobalRank: 424
##########                 Rank:                    1
##########               Setnum:                  115
##########             Matchnum:                 1057
##########                Cloud:                    1
##########        Electrostatic:           -41.904865
##########        Van der Waals:           -19.843225
##########  Ligand Polar Desolv:             1.839726
########## Ligand Apolar Desolv:            -4.090653
##########      Internal Energy:             0.000000
##########      Receptor Energy: 0.0
########## Receptor Desolvation:             0.000000
########## Receptor Hydrophobic:             0.000000
##########         Total Energy: -64.0
##########        Ligand Charge:             2.000000
##########            Arbitrary:    +999.9990
##########     heavy atom count:   25
##########           pose count:    1
##########        Ligand Energy:             0.000000
# num electro vdwattr vdwrepu polsolv apolsol rdesolv rhydroe totalscore fullpol fullapo
#   1    3.41   -1.81    0.66   -1.66   -0.10    0.00    0.00       0.51   -3.26   -0.19
#   2    1.81   -1.01    0.27   -1.07   -0.09    0.00    0.00      -0.08   -2.83   -0.25
#   3    3.63   -0.94    0.21   -1.72   -0.07    0.00    0.00       1.12   -4.32   -0.17
#   4    2.61   -0.98    0.39   -0.98   -0.08    0.00    0.00       0.96   -3.13   -0.24
#   5   -6.16   -0.67    0.02    2.81   -0.19    0.00    0.00      -4.19   10.76   -0.74
#   6   11.67   -0.83    0.04   -5.66    0.30    0.00    0.00       5.51  -17.73    0.94
#   7  -12.85   -0.02    0.00    3.38    0.11    0.00    0.00      -9.38   13.30    0.42
#   8  -11.25   -0.75    0.02    5.47   -1.36    0.00    0.00      -7.87   18.57   -4.62
#   9   13.60   -0.62    0.02   -4.97    0.21    0.00    0.00       8.25  -22.00    0.95
#  10   -9.62   -0.54    0.02    4.56   -0.41    0.00    0.00      -6.00   22.35   -2.03
#  11   12.63   -0.57    0.03   -5.56    0.26    0.00    0.00       6.79  -27.18    1.26
#  12   -3.64   -1.28    0.80    1.11   -0.07    0.00    0.00      -3.07    4.10   -0.25
#  13    5.31   -1.38    0.66   -2.29   -0.07    0.00    0.00       2.23   -7.49   -0.23
#  14    0.12   -0.30    0.01   -0.01   -0.06    0.00    0.00      -0.24   -0.06   -0.38
#  15    5.55   -0.25    0.01   -2.14    0.05    0.00    0.00       3.22  -16.80    0.40
#  16   -7.91   -0.01    0.00    1.79    0.05    0.00    0.00      -6.08   21.33    0.55
#  17    0.35   -0.09    0.00   -0.12   -0.03    0.00    0.00       0.12   -2.08   -0.48
#  18    0.20   -0.23    0.01   -0.05   -0.05    0.00    0.00      -0.13   -0.37   -0.38
#  19    4.34   -0.73    0.23   -1.47   -0.06    0.00    0.00       2.32   -6.30   -0.24
#  20    4.22   -0.51    0.02   -2.13   -0.09    0.00    0.00       1.51  -11.31   -0.46
#  21   10.33   -1.16    0.07   -6.16    0.83    0.00    0.00       3.91  -15.23    2.04
#  22   -1.61   -1.44    0.24    0.97   -0.22    0.00    0.00      -2.07    2.50   -0.58
#  23    2.87   -1.45    0.24   -1.72   -0.15    0.00    0.00      -0.20   -4.17   -0.37
#  24    1.84   -1.79    0.60   -0.83   -0.21    0.00    0.00      -0.39   -1.86   -0.47
#  25    2.75   -2.81    1.44   -1.75   -0.24    0.00    0.00      -0.60   -3.48   -0.47
#  26    3.16   -2.88    1.07   -1.30   -0.25    0.00    0.00      -0.20   -2.40   -0.47
#  27    3.14   -2.11    0.58   -1.63   -0.23    0.00    0.00      -0.26   -3.37   -0.47
#  28   -1.09   -1.25    2.36    0.36   -0.14    0.00    0.00       0.23    0.71   -0.28
#  29   -1.33   -0.51    0.20    0.33   -0.11    0.00    0.00      -1.43    0.82   -0.28
#  30   -1.51   -0.60    0.16    0.04   -0.13    0.00    0.00      -2.04    0.09   -0.28
#  31   -0.77   -0.23    0.03    0.37   -0.06    0.00    0.00      -0.66    1.60   -0.28
#  32   -0.82   -0.45    0.31    0.43   -0.07    0.00    0.00      -0.60    1.79   -0.28
#  33   -2.01   -0.28    0.02    0.68   -0.08    0.00    0.00      -1.66    2.23   -0.27
#  34   -2.07   -0.55    0.63    0.58   -0.08    0.00    0.00      -1.50    1.92   -0.27
#  35   -4.55   -0.55    0.31    1.92   -0.10    0.00    0.00      -2.96    5.57   -0.28
#  36   -1.73   -0.32    0.19    1.23   -0.06    0.00    0.00      -0.70    6.11   -0.28
#  37  -11.53   -0.01    0.00    1.94    0.03    0.00    0.00      -9.57   15.71    0.28
#  38   -4.90    0.00    0.00    1.36    0.03    0.00    0.00      -3.52   22.41    0.47
#  39   -6.33   -1.34    3.65    1.13   -0.07    0.00    0.00      -2.96    3.59   -0.23
#  40   -3.23   -0.53    0.21    1.33   -0.09    0.00    0.00      -2.30    3.97   -0.28
#  41   -5.35   -0.87    0.89    1.84   -0.09    0.00    0.00      -3.58    5.73   -0.28
#  42   -1.06   -0.05    0.00    0.34   -0.01    0.00    0.00      -0.78    7.46   -0.27
#  43   -1.26   -0.08    0.00    0.53   -0.02    0.00    0.00      -0.84    6.49   -0.28
#  44   -0.81   -0.02    0.00    0.13   -0.01    0.00    0.00      -0.70    4.78   -0.28
#  45   -0.56   -0.02    0.00    0.13   -0.01    0.00    0.00      -0.46    4.92   -0.28
#  46   -0.72   -0.03    0.00    0.21   -0.01    0.00    0.00      -0.55    5.97   -0.28
#  47   -1.15   -0.05    0.00    0.34   -0.01    0.00    0.00      -0.86    8.00   -0.22
#  48   -1.79   -0.06    0.00    0.41   -0.02    0.00    0.00      -1.47    6.76   -0.28
#  49   -4.64   -0.47    0.35    1.37   -0.07    0.00    0.00      -3.46    5.30   -0.28
#  50   -3.15   -0.14    0.01    0.58   -0.04    0.00    0.00      -2.73    4.39   -0.28
#  51   -1.39   -0.08    0.00    1.00   -0.02    0.00    0.00      -0.49   11.88   -0.28
#  52   -1.30   -0.33    0.05    1.83   -0.10    0.00    0.00       0.15    5.38   -0.28
#  53   -2.17   -0.28    0.03    1.56   -0.08    0.00    0.00      -0.95    5.22   -0.28
#  54   -3.61   -1.03    1.23    1.47   -0.15    0.00    0.00      -2.08    2.68   -0.28
#  55   -6.27   -0.88    0.38    0.98   -0.17    0.00    0.00      -5.96    1.66   -0.28
#  56   -5.31   -0.41    0.05    0.54   -0.12    0.00    0.00      -5.24    1.28   -0.28

@<TRIPOS>MOLECULE
          T539731        38
   56    58     0     0     0



@<TRIPOS>ATOM
      1 C1         -1.0276    -2.7710    91.9004 C.3        1          -0.1620
      2 C2         -0.5444    -4.2110    92.0848 C.3        1          -0.1205
      3 C3         -1.1088    -4.7750    93.3903 C.3        1          -0.1514
      4 C4         -0.6256    -6.2150    93.5748 C.3        1          -0.1166
      5 C5          0.8802    -6.2368    93.6277 C.2        1           0.3500
      6 N1          1.4978    -6.1134    94.7870 N.pl3      1          -0.5391
      7 H1          0.9739    -6.0095    95.5967 H          1           0.4625
      8 C6          2.8317    -6.1293    94.8664 C.2        1           0.5555
      9 N2          3.6015    -6.2746    93.7366 N.pl3      1          -0.6353
     10 C7          2.9943    -6.4045    92.5183 C.2        1           0.5543
     11 N3          3.7424    -6.5509    91.3784 N.pl3      1          -0.6831
     12 C8          5.0745    -5.9470    91.2938 C.3        1           0.1043
     13 C9          5.3847    -5.5929    89.8366 C.3        1          -0.1707
     14 C10         5.4175    -6.8749    89.0018 C.3        1          -0.0089
     15 N4          6.4555    -7.7741    89.5199 N.4        1          -0.3857
     16 H2          7.3452    -7.2982    89.5133 H          1           0.4316
     17 C11         6.5348    -8.9693    88.6696 C.3        1          -0.0504
     18 C12         6.1268    -8.1750    90.8932 C.3        1          -0.0138
     19 C13         6.1214    -6.9432    91.8008 C.3        1          -0.1525
     20 C14         1.6107    -6.3922    92.4561 C.2        1          -0.3415
     21 N5          3.4193    -6.0033    96.0476 N.2        1          -0.4869
     22 C15         4.7784    -5.8924    96.1259 C.ar       1           0.0702
     23 C16         5.5208    -6.8417    96.8341 C.ar       1          -0.1733
     24 C17         6.8928    -6.7231    96.9088 C.ar       1          -0.1004
     25 C18         7.5345    -5.6677    96.2848 C.ar       1          -0.1084
     26 C19         6.8062    -4.7240    95.5818 C.ar       1          -0.0903
     27 C20         5.4342    -4.8323    95.4934 C.ar       1          -0.0954
     28 H3         -0.6256    -2.3690    90.9704 H          1           0.0584
     29 H4         -2.1169    -2.7555    91.8622 H          1           0.0580
     30 H5         -0.6847    -2.1627    92.7374 H          1           0.0665
     31 H6         -0.8873    -4.8193    91.2479 H          1           0.0734
     32 H7          0.5448    -4.2266    92.1232 H          1           0.0728
     33 H8         -0.7660    -4.1667    94.2272 H          1           0.0777
     34 H9         -2.1980    -4.7594    93.3520 H          1           0.0783
     35 H10        -1.0278    -6.6170    94.5047 H          1           0.1399
     36 H11        -0.9685    -6.8233    92.7378 H          1           0.1388
     37 H12         4.5690    -6.2844    93.8033 H          1           0.4439
     38 H13         3.3896    -7.0543    90.6280 H          1           0.4365
     39 H14         5.1048    -5.0444    91.9040 H          1           0.1190
     40 H15         4.6123    -4.9273    89.4515 H          1           0.1134
     41 H16         6.3539    -5.0973    89.7809 H          1           0.1234
     42 H17         4.4479    -7.3694    89.0581 H          1           0.1277
     43 H18         5.6380    -6.6263    87.9637 H          1           0.1453
     44 H19         7.3054    -9.6378    89.0537 H          1           0.1305
     45 H20         5.5734    -9.4828    88.6740 H          1           0.1319
     46 H21         6.7845    -8.6744    87.6505 H          1           0.1239
     47 H22         5.1421    -8.6419    90.9091 H          1           0.1251
     48 H23         6.8711    -8.8865    91.2513 H          1           0.1504
     49 H24         7.1060    -6.4757    91.7859 H          1           0.1244
     50 H25         5.8755    -7.2427    92.8195 H          1           0.1315
     51 H26         1.1055    -6.4981    91.5074 H          1           0.1967
     52 H27         5.0213    -7.6656    97.3220 H          1           0.1192
     53 H28         7.4677    -7.4554    97.4560 H          1           0.1332
     54 H29         8.6091    -5.5799    96.3471 H          1           0.1375
     55 H30         7.3140    -3.9029    95.0976 H          1           0.1420
     56 H31         4.8676    -4.0977    94.9406 H          1           0.1385
@<TRIPOS>BOND
     1    1    2 1
     2    1   28 1
     3    1   29 1
     4    1   30 1
     5    2    3 1
     6    2   31 1
     7    2   32 1
     8    3    4 1
     9    3   33 1
    10    3   34 1
    11    4    5 1
    12    4   35 1
    13    4   36 1
    14    5   20 1
    15    5    6 2
    16    6    7 1
    17    6    8 1
    18    8    9 1
    19    8   21 2
    20    9   10 1
    21    9   37 1
    22   10   11 1
    23   10   20 2
    24   11   12 1
    25   11   38 1
    26   12   19 1
    27   12   13 1
    28   12   39 1
    29   13   14 1
    30   13   40 1
    31   13   41 1
    32   14   15 1
    33   14   42 1
    34   14   43 1
    35   15   16 1
    36   15   17 1
    37   15   18 1
    38   17   44 1
    39   17   45 1
    40   17   46 1
    41   18   19 1
    42   18   47 1
    43   18   48 1
    44   19   49 1
    45   19   50 1
    46   20   51 1
    47   21   22 1
    48   22   27 ar
    49   22   23 ar
    50   23   24 ar
    51   23   52 1
    52   24   25 ar
    53   24   53 1
    54   25   26 ar
    55   25   54 1
    56   26   27 ar
    57   26   55 1
    58   27   56 1
##########                 Name:              T541626
##########          Protonation:                   52
##########               SMILES:   Cc1n[nH]c2c1cc(cc2)c3cc4c(cc[nH+]c4cc3)N5CC[C@@H](CC5)[NH3+]
##########            Long Name:   [1-[6-(3-methyl-1H-indazol-5-yl)quinolin-1-ium-4-yl]-4-piperidyl]ammonium
##########          FlexRecCode: 1
##########               Number:                   19
##########   Ligand Source File: /raidb/db2/rgc/tcams/tcams-0002128.db2.gz
##########           GlobalRank: 424
##########                 Rank:                    1
##########               Setnum:                    5
##########             Matchnum:                 1857
##########                Cloud:                    1
##########        Electrostatic:           -58.753700
##########        Van der Waals:           -16.664085
##########  Ligand Polar Desolv:            13.155380
########## Ligand Apolar Desolv:            -1.742698
##########      Internal Energy:             0.000000
##########      Receptor Energy: 0.0
########## Receptor Desolvation:             0.000000
########## Receptor Hydrophobic:             0.000000
##########         Total Energy: -64.0
##########        Ligand Charge:             2.000000
##########            Arbitrary:    +999.9990
##########     heavy atom count:   27
##########           pose count:    1
##########        Ligand Energy:             0.000000
# num electro vdwattr vdwrepu polsolv apolsol rdesolv rhydroe totalscore fullpol fullapo
#   1    1.29   -1.27    0.22   -0.51   -0.09    0.00    0.00      -0.36   -1.13   -0.21
#   2   -1.45   -2.25    0.59    0.31   -0.41    0.00    0.00      -3.21    0.62   -0.82
#   3    3.62   -3.47    1.06   -2.36    0.69    0.00    0.00      -0.46   -4.01    1.18
#   4    9.37   -3.74    2.12   -4.57    0.43    0.00    0.00       3.62   -7.69    0.73
#   5   -1.92   -2.48    1.49    0.77   -0.41    0.00    0.00      -2.55    1.50   -0.80
#   6    1.47   -1.78    0.53   -1.82   -0.22    0.00    0.00      -1.81   -3.81   -0.47
#   7    0.49   -1.22    0.10   -0.34   -0.19    0.00    0.00      -1.16   -0.77   -0.44
#   8    0.77   -1.23    0.12   -0.82   -0.14    0.00    0.00      -1.29   -2.37   -0.41
#   9   -0.04   -1.45    0.24   -0.54   -0.16    0.00    0.00      -1.95   -1.53   -0.45
#  10    1.68   -1.82    0.41   -1.69   -0.19    0.00    0.00      -1.62   -3.96   -0.45
#  11   -0.09   -1.22    0.18   -0.50   -0.13    0.00    0.00      -1.76   -1.60   -0.41
#  12    0.37   -1.65    0.38   -0.96   -0.16    0.00    0.00      -2.02   -2.62   -0.44
#  13    1.58   -2.01    0.85   -1.42   -0.15    0.00    0.00      -1.15   -4.30   -0.46
#  14   -0.82   -0.81    0.10    1.03   -0.17    0.00    0.00      -0.67    4.34   -0.73
#  15    2.25   -0.53    0.05   -2.86    0.16    0.00    0.00      -0.92  -16.48    0.95
#  16   -3.30   -0.01    0.00    2.20    0.07    0.00    0.00      -1.04   17.69    0.58
#  17   -0.37   -0.21    0.01    0.82   -0.08    0.00    0.00       0.17    9.38   -0.96
#  18    0.38   -0.17    0.01   -0.55   -0.04    0.00    0.00      -0.37   -7.27   -0.47
#  19   -1.45   -0.34    0.03    1.49   -0.07    0.00    0.00      -0.34   12.16   -0.54
#  20    5.94   -0.30    0.01   -3.17    0.14    0.00    0.00       2.63  -25.88    1.14
#  21   -2.32   -0.30    0.02    0.84   -0.08    0.00    0.00      -1.84    4.92   -0.48
#  22    4.64   -0.88    0.26   -1.88   -0.06    0.00    0.00       2.08   -7.23   -0.24
#  23   -0.83   -0.86    0.42    0.74   -0.07    0.00    0.00      -0.60    3.13   -0.29
#  24   27.96   -2.95    8.23   -9.54    0.22    0.00    0.00      23.92  -31.53    0.74
#  25  -32.93   -0.71    2.11    8.27    0.20    0.00    0.00     -23.05   23.85    0.58
#  26  -16.93   -0.02    0.00    5.04    0.12    0.00    0.00     -11.79   23.86    0.58
#  27  -14.49   -0.02    0.00    4.63    0.11    0.00    0.00      -9.76   23.99    0.58
#  28    2.32   -0.33    0.02   -1.31   -0.04    0.00    0.00       0.66   -7.24   -0.24
#  29   -1.01   -0.25    0.02    0.64   -0.06    0.00    0.00      -0.67    4.91   -0.49
#  30    0.34   -0.69    0.12   -0.69   -0.08    0.00    0.00      -1.00   -3.65   -0.40
#  31    0.43   -0.99    0.19   -0.24   -0.10    0.00    0.00      -0.72   -0.98   -0.42
#  32   -1.79   -0.72    0.38    0.60   -0.13    0.00    0.00      -1.66    1.28   -0.28
#  33   -1.72   -0.23    0.02    0.10   -0.06    0.00    0.00      -1.89    0.46   -0.28
#  34   -0.84   -0.40    0.09    0.82   -0.10    0.00    0.00      -0.44    2.23   -0.28
#  35  -13.16   -0.12    0.02    4.48    0.23    0.00    0.00      -8.54    7.64    0.40
#  36   -1.54   -0.36    0.07    2.57   -0.10    0.00    0.00       0.63    6.88   -0.28
#  37   -1.05   -0.21    0.01    2.45   -0.05    0.00    0.00       1.14   10.43   -0.21
#  38   -0.53   -0.30    0.10    0.69   -0.05    0.00    0.00      -0.09    3.17   -0.21
#  39   -2.00   -0.40    0.11    1.12   -0.07    0.00    0.00      -1.23    3.38   -0.21
#  40   -4.48   -1.56    4.11    2.00   -0.10    0.00    0.00      -0.02    5.47   -0.28
#  41   -0.15   -0.02    0.00    0.25   -0.01    0.00    0.00       0.07   11.21   -0.28
#  42   -0.39   -0.02    0.00    0.17   -0.01    0.00    0.00      -0.24    7.45   -0.28
#  43   -1.28   -0.09    0.01    0.19   -0.02    0.00    0.00      -1.20    2.13   -0.27
#  44   -1.51   -0.07    0.00    0.17   -0.02    0.00    0.00      -1.43    2.54   -0.28
#  45   -2.02   -0.30    0.10    1.06   -0.05    0.00    0.00      -1.21    4.90   -0.24
#  46   -4.16   -0.63    0.50    1.67   -0.09    0.00    0.00      -2.72    5.24   -0.28
#  47   -5.04   -0.29    0.10    1.28   -0.05    0.00    0.00      -4.01    7.02   -0.28
#  48   -0.84   -0.14    0.01    0.57   -0.03    0.00    0.00      -0.42    4.92   -0.23
#  49   -1.41   -0.08    0.00    0.39   -0.02    0.00    0.00      -1.12    5.25   -0.28
#  50   -0.69   -0.04    0.00    0.10   -0.01    0.00    0.00      -0.64    2.56   -0.28
#  51   -0.01   -0.16    0.05    0.24   -0.03    0.00    0.00       0.09    2.15   -0.27
#  52   -1.13   -0.15    0.01    1.21   -0.01    0.00    0.00      -0.07    8.36   -0.10

@<TRIPOS>MOLECULE
          T541626        52
   52    56     0     0     0



@<TRIPOS>ATOM
      1 C1          4.7983    -6.9012    97.4005 C.3        1          -0.0854
      2 C2          5.9269    -7.6820    98.0232 C.2        1           0.1147
      3 N1          6.4386    -7.4822    99.2040 N.2        1          -0.2329
      4 N2          7.4685    -8.3975    99.4428 N.pl3      1          -0.4979
      5 C3          7.6062    -9.2133    98.3499 C.ar       1           0.1507
      6 C4          8.4546   -10.2765    98.0448 C.ar       1          -0.1374
      7 C5          8.3524   -10.9112    96.8427 C.ar       1          -0.0585
      8 C6          7.3987   -10.5075    95.8998 C.ar       1          -0.1301
      9 C7          6.5437    -9.4534    96.1801 C.ar       1           0.0067
     10 C8          6.6381    -8.8015    97.4131 C.ar       1          -0.1736
     11 C9          7.3038   -11.2102    94.5967 C.ar       1           0.0177
     12 C10         7.6417   -12.5697    94.5111 C.ar       1          -0.0400
     13 C11         7.5625   -13.2354    93.3297 C.ar       1          -0.1223
     14 C12         7.1382   -12.5636    92.1689 C.ar       1           0.1325
     15 N3          7.0550   -13.2055    90.9979 N.ar       1          -0.4548
     16 H1          7.2919   -14.1452    90.9566 H          1           0.4519
     17 C13         6.6609   -12.5973    89.9035 C.ar       1           0.2131
     18 C14         6.3080   -11.2546    89.8974 C.ar       1          -0.1801
     19 C15         6.3689   -10.5240    91.0735 C.ar       1           0.3298
     20 N4          6.0228    -9.1818    91.1003 N.pl3      1          -0.6878
     21 C16         7.0320    -8.1433    90.8518 C.3        1           0.1428
     22 C17         7.0113    -7.1471    92.0154 C.3        1          -0.1670
     23 C18         5.5895    -6.6111    92.1977 C.3        1           0.0267
     24 N5          5.5726    -5.6306    93.2914 N.4        1          -0.6390
     25 H2          6.1939    -4.8674    93.0686 H          1           0.4413
     26 H3          4.6352    -5.2771    93.4117 H          1           0.4413
     27 H4          5.8770    -6.0739    94.1451 H          1           0.4316
     28 C19         4.6458    -7.7677    92.5351 C.3        1          -0.1672
     29 C20         4.6385    -8.7710    91.3718 C.3        1           0.1430
     30 C21         6.7957   -11.1921    92.2473 C.ar       1          -0.0806
     31 C22         6.8774   -10.5229    93.4742 C.ar       1          -0.0889
     32 H5          4.4681    -6.1259    98.0918 H          1           0.0920
     33 H6          5.1430    -6.4399    96.4749 H          1           0.0898
     34 H7          3.9676    -7.5731    97.1843 H          1           0.0851
     35 H8          8.0006    -8.4472   100.2524 H          1           0.4475
     36 H9          9.1949   -10.5980    98.7625 H          1           0.1322
     37 H10         9.0141   -11.7338    96.6148 H          1           0.1179
     38 H11         5.8078    -9.1410    95.4539 H          1           0.1394
     39 H12         7.9692   -13.0938    95.3968 H          1           0.1600
     40 H13         7.8263   -14.2816    93.2813 H          1           0.1638
     41 H14         6.6101   -13.1571    88.9814 H          1           0.2154
     42 H15         5.9880   -10.7817    88.9808 H          1           0.1867
     43 H16         8.0183    -8.6018    90.7808 H          1           0.0975
     44 H17         6.8004    -7.6238    89.9219 H          1           0.0878
     45 H18         7.3311    -7.6484    92.9290 H          1           0.0909
     46 H19         7.6870    -6.3199    91.7981 H          1           0.1095
     47 H20         5.2611    -6.1320    91.2753 H          1           0.1504
     48 H21         4.9878    -8.2630    93.4439 H          1           0.0909
     49 H22         3.6378    -7.3821    92.6877 H          1           0.1093
     50 H23         4.2157    -8.3017    90.4835 H          1           0.0883
     51 H24         4.0451    -9.6439    91.6440 H          1           0.0976
     52 H25         6.6140    -9.4778    93.5430 H          1           0.1477
@<TRIPOS>BOND
     1    1    2 1
     2    1   32 1
     3    1   33 1
     4    1   34 1
     5    2   10 1
     6    2    3 2
     7    3    4 1
     8    4    5 1
     9    4   35 1
    10    5   10 ar
    11    5    6 ar
    12    6    7 ar
    13    6   36 1
    14    7    8 ar
    15    7   37 1
    16    8    9 ar
    17    8   11 1
    18    9   10 ar
    19    9   38 1
    20   11   31 ar
    21   11   12 ar
    22   12   13 ar
    23   12   39 1
    24   13   14 ar
    25   13   40 1
    26   14   30 ar
    27   14   15 ar
    28   15   16 1
    29   15   17 ar
    30   17   18 ar
    31   17   41 1
    32   18   19 ar
    33   18   42 1
    34   19   20 1
    35   19   30 ar
    36   20   29 1
    37   20   21 1
    38   21   22 1
    39   21   43 1
    40   21   44 1
    41   22   23 1
    42   22   45 1
    43   22   46 1
    44   23   24 1
    45   23   28 1
    46   23   47 1
    47   24   25 1
    48   24   26 1
    49   24   27 1
    50   28   29 1
    51   28   48 1
    52   28   49 1
    53   29   50 1
    54   29   51 1
    55   30   31 ar
    56   31   52 1
##########                 Name:              T533211
##########          Protonation:                   38
##########               SMILES:   c1cc(ccc1CCNc2nc(nc(n2)N3CC[NH2+]CC3)NCCCOc4cc(ccc4F)C[NH+]5CCCCC5)O
##########            Long Name:   xy]propylamino]-6-piperazin-4-ium-1-yl-1,3,5-triazin-2-yl]amino]ethyl]phenol
##########          FlexRecCode: 1
##########               Number:                  296
##########   Ligand Source File: /raidb/db2/rgc/tcams/tcams-0001063.db2.gz
##########           GlobalRank: 425
##########                 Rank:                    1
##########               Setnum:                  211
##########             Matchnum:                  838
##########                Cloud:                    1
##########        Electrostatic:           -56.941444
##########        Van der Waals:           -25.360281
##########  Ligand Polar Desolv:            22.338135
########## Ligand Apolar Desolv:            -4.022716
##########      Internal Energy:             0.000000
##########      Receptor Energy: 0.0
########## Receptor Desolvation:             0.000000
########## Receptor Hydrophobic:             0.000000
##########         Total Energy: -63.99
##########        Ligand Charge:             2.000000
##########            Arbitrary:    +999.9990
##########     heavy atom count:   41
##########           pose count:    1
##########        Ligand Energy:             0.000000
# num electro vdwattr vdwrepu polsolv apolsol rdesolv rhydroe totalscore fullpol fullapo
#   1    0.39   -0.32    0.03   -1.28    0.16    0.00    0.00      -1.01   -9.35    1.19
#   2   -0.09   -0.42    0.04    0.23   -0.05    0.00    0.00      -0.29    1.54   -0.31
#   3    0.14   -0.19    0.00   -0.26   -0.04    0.00    0.00      -0.35   -2.83   -0.46
#   4    0.12   -0.25    0.01   -0.20   -0.05    0.00    0.00      -0.37   -1.87   -0.46
#   5    0.11   -0.58    0.04   -0.36   -0.08    0.00    0.00      -0.86   -1.68   -0.36
#   6    0.15   -0.92    0.32   -0.41   -0.06    0.00    0.00      -0.91   -1.53   -0.23
#   7   -0.29   -0.81    0.21    0.84   -0.11    0.00    0.00      -0.16    3.23   -0.43
#   8    2.05   -0.35    0.01   -1.77    0.26    0.00    0.00       0.20  -11.92    1.73
#   9   -4.27   -0.29    0.01    1.18   -0.60    0.00    0.00      -3.98    9.40   -4.81
#  10    3.78   -0.16    0.00   -0.72    0.12    0.00    0.00       3.02  -10.49    1.79
#  11   -4.99   -0.16    0.00    0.65   -0.33    0.00    0.00      -4.83    9.41   -4.81
#  12    2.93   -0.18    0.00   -0.96    0.14    0.00    0.00       1.94  -12.07    1.72
#  13   -0.77   -0.12    0.00    0.27   -0.03    0.00    0.00      -0.65    3.32   -0.43
#  14    0.87   -0.28    0.02   -0.37   -0.03    0.00    0.00       0.21   -2.50   -0.23
#  15   -0.65   -0.56    0.15    0.25   -0.02    0.00    0.00      -0.82    1.25   -0.09
#  16    2.76   -1.36    0.83   -1.63    0.22    0.00    0.00       0.82   -6.56    0.88
#  17   -1.09   -1.20    0.24    0.32   -0.09    0.00    0.00      -1.81    1.14   -0.31
#  18    2.95   -1.03    0.15   -1.09   -0.09    0.00    0.00       0.88   -3.81   -0.32
#  19    2.54   -0.90    0.05   -0.69   -0.11    0.00    0.00       0.89   -2.12   -0.33
#  20   -1.33   -0.81    0.09    0.87   -0.14    0.00    0.00      -1.32    2.23   -0.36
#  21    9.99   -0.69    0.03   -4.18    0.08    0.00    0.00       5.23  -13.81    0.27
#  22   -8.74   -0.01    0.00    1.69    0.05    0.00    0.00      -7.00   16.93    0.54
#  23    0.46   -1.11    0.21   -0.03   -0.14    0.00    0.00      -0.62   -0.08   -0.35
#  24    3.37   -1.02    0.30   -1.41   -0.08    0.00    0.00       1.16   -4.30   -0.25
#  25    3.17   -0.71    0.05   -1.39   -0.09    0.00    0.00       1.05   -4.06   -0.25
#  26    3.21   -0.57    0.03   -1.55   -0.08    0.00    0.00       1.03   -4.65   -0.25
#  27    0.15   -0.64    0.03    0.21   -0.14    0.00    0.00      -0.39    0.57   -0.38
#  28    1.24   -1.25    0.11   -0.94   -0.18    0.00    0.00      -1.02   -2.44   -0.46
#  29    0.78   -1.89    0.44   -1.18   -0.19    0.00    0.00      -2.04   -2.96   -0.47
#  30   -0.70   -1.32    0.17   -0.24   -0.12    0.00    0.00      -2.21   -0.69   -0.34
#  31    0.53   -0.72    0.06   -0.81   -0.18    0.00    0.00      -1.13   -2.12   -0.47
#  32    8.10   -0.23    0.00   -1.10    0.18    0.00    0.00       6.94  -11.38    1.84
#  33   -9.95   -0.47    0.02    1.85   -0.78    0.00    0.00      -9.33   11.04   -4.68
#  34    5.92   -0.56    0.03   -2.21    0.36    0.00    0.00       3.54  -11.41    1.84
#  35   12.66   -0.83    0.07   -3.59    0.43    0.00    0.00       8.74  -14.34    1.70
#  36   -2.10   -0.43    0.03    0.54   -0.11    0.00    0.00      -2.07    2.30   -0.48
#  37    0.42   -0.55    0.04    0.22   -0.15    0.00    0.00      -0.02    0.71   -0.48
#  38   15.91   -1.48    0.33   -8.03    0.38    0.00    0.00       7.11  -18.75    0.89
#  39  -15.50   -0.03    0.00    7.85    0.23    0.00    0.00      -7.46   19.42    0.56
#  40  -17.20   -0.06    0.00    8.21    0.22    0.00    0.00      -8.82   20.81    0.57
#  41    0.51   -1.15    0.22    0.29   -0.20    0.00    0.00      -0.32    0.70   -0.48
#  42   -2.87   -1.78    1.55    0.84   -0.18    0.00    0.00      -2.42    2.30   -0.48
#  43    0.09   -0.93    0.11   -0.53   -0.13    0.00    0.00      -1.41   -1.83   -0.46
#  44    0.12   -1.06    0.35   -0.69   -0.11    0.00    0.00      -1.39   -2.78   -0.46
#  45   -0.28    0.00    0.00    0.33    0.04    0.00    0.00       0.08   10.57    1.22
#  46   -0.11   -0.02    0.00    0.05   -0.01    0.00    0.00      -0.09    2.11   -0.28
#  47   -0.18   -0.03    0.00    0.08   -0.01    0.00    0.00      -0.14    2.44   -0.28
#  48   -0.17   -0.16    0.02    0.26   -0.04    0.00    0.00      -0.09    1.87   -0.28
#  49   -0.09   -1.05    1.79    0.51   -0.09    0.00    0.00       1.07    1.58   -0.28
#  50   -0.20   -0.49    0.27    0.29   -0.09    0.00    0.00      -0.22    0.96   -0.28
#  51   -0.12   -0.29    0.11    0.27   -0.06    0.00    0.00      -0.08    1.28   -0.28
#  52   -0.89    0.00    0.00    0.33    0.02    0.00    0.00      -0.54    7.92    0.58
#  53   -0.31    0.00    0.00    0.44    0.03    0.00    0.00       0.16    7.65    0.58
#  54   -0.25   -0.02    0.00    0.03   -0.01    0.00    0.00      -0.24    1.36   -0.28
#  55   -0.53   -0.03    0.00    0.06   -0.01    0.00    0.00      -0.51    1.82   -0.28
#  56   -0.42   -0.10    0.01    0.10   -0.02    0.00    0.00      -0.43    1.30   -0.28
#  57   -0.55   -0.11    0.01    0.09   -0.03    0.00    0.00      -0.58    0.92   -0.28
#  58   -1.03   -0.30    0.15    0.45   -0.05    0.00    0.00      -0.77    2.63   -0.27
#  59   -0.65   -0.09    0.00    0.31   -0.02    0.00    0.00      -0.46    3.52   -0.27
#  60   -3.49   -0.22    0.03    1.40   -0.04    0.00    0.00      -2.32    7.05   -0.21
#  61   -4.13   -0.42    0.12    2.39   -0.08    0.00    0.00      -2.11    7.79   -0.27
#  62   -5.88   -0.50    0.45    2.21   -0.08    0.00    0.00      -3.80    7.81   -0.28
#  63   -4.53   -0.48    0.10    2.92   -0.12    0.00    0.00      -2.10    6.76   -0.28
#  64   -6.24   -0.75    0.68    1.45   -0.07    0.00    0.00      -4.93    4.26   -0.21
#  65   -2.23   -1.07    2.19    0.75   -0.10    0.00    0.00      -0.45    2.13   -0.28
#  66   -1.62   -0.15    0.01    0.33   -0.04    0.00    0.00      -1.48    2.06   -0.28
#  67   -2.02   -0.42    0.13    0.81   -0.09    0.00    0.00      -1.59    2.50   -0.28
#  68   -2.04   -0.16    0.01    0.05   -0.05    0.00    0.00      -2.20    0.25   -0.28
#  69   -3.27   -0.30    0.08    0.56   -0.07    0.00    0.00      -3.00    2.14   -0.28
#  70   -1.32   -0.12    0.00    0.26   -0.03    0.00    0.00      -1.21    2.31   -0.28
#  71   -2.11   -0.20    0.01    1.42   -0.06    0.00    0.00      -0.94    6.55   -0.28
#  72   -3.33   -0.34    0.04    2.05   -0.09    0.00    0.00      -1.67    6.50   -0.28
#  73   -2.17   -0.31    0.03    2.19   -0.10    0.00    0.00      -0.35    6.37   -0.28
#  74   -0.86   -0.99    1.08    0.82   -0.11    0.00    0.00      -0.06    2.11   -0.28
#  75   -2.42   -0.25    0.06    0.73   -0.06    0.00    0.00      -1.94    3.56   -0.28
#  76   -1.95   -0.06    0.00    0.10   -0.01    0.00    0.00      -1.93    1.77   -0.24
#  77   -2.34   -0.15    0.01    1.31   -0.05    0.00    0.00      -1.22    7.63   -0.28
#  78   -1.91   -0.20    0.04    0.66   -0.04    0.00    0.00      -1.46    4.09   -0.28
#  79   -4.25   -0.53    0.20    2.93   -0.11    0.00    0.00      -1.75    7.68   -0.28
#  80   -1.53   -0.39    0.17    0.99   -0.07    0.00    0.00      -0.82    4.09   -0.28
#  81   -1.69   -0.83    1.67    0.50   -0.07    0.00    0.00      -0.42    1.83   -0.24
#  82   -4.57   -1.26    2.06    1.55   -0.12    0.00    0.00      -2.36    3.56   -0.28
#  83   -0.08   -0.26    0.02    0.93   -0.09    0.00    0.00       0.53    2.99   -0.28
#  84   -0.09   -0.54    0.67    0.72   -0.07    0.00    0.00       0.68    2.72   -0.28

@<TRIPOS>MOLECULE
          T533211        38
   84    88     0     0     0



@<TRIPOS>ATOM
      1 O1         -1.8457    -9.5428    85.5630 O.3        1          -0.4941
      2 C1         -0.8602    -8.6472    85.8341 C.ar       1           0.1036
      3 C2          0.4511    -9.0780    85.9735 C.ar       1          -0.1420
      4 C3          1.4512    -8.1656    86.2486 C.ar       1          -0.0938
      5 C4          1.1459    -6.8239    86.3857 C.ar       1          -0.0907
      6 C5          2.2388    -5.8308    86.6862 C.3        1          -0.0959
      7 C6          2.3948    -5.6871    88.2014 C.3        1           0.1440
      8 N1          2.7426    -6.9863    88.7821 N.pl3      1          -0.6822
      9 C7          4.0672    -7.3515    88.9125 C.ar       1           0.6607
     10 N2          4.3828    -8.5328    89.4343 N.ar       1          -0.6640
     11 C8          5.6584    -8.8845    89.5600 C.ar       1           0.6607
     12 N3          5.9860   -10.1109    90.1016 N.pl3      1          -0.6838
     13 C9          7.3920   -10.4985    90.2400 C.3        1           0.1436
     14 C10         7.7081   -10.7523    91.7154 C.3        1          -0.1387
     15 C11         7.4492    -9.4765    92.5192 C.3        1           0.0643
     16 O2          7.7443    -9.7135    93.8972 O.3        1          -0.2973
     17 C12         7.0343    -9.0011    94.8119 C.ar       1           0.1062
     18 C13         6.5696    -7.7335    94.4963 C.ar       1          -0.1663
     19 C14         5.8482    -7.0110    95.4275 C.ar       1          -0.1323
     20 C15         5.3432    -5.6333    95.0840 C.3        1           0.0445
     21 N4          4.0038    -5.7369    94.4897 N.4        1          -0.3822
     22 H1          3.9726    -6.5324    93.8697 H          1           0.4239
     23 C16         3.7113    -4.5151    93.7304 C.3        1          -0.0134
     24 C17         2.3511    -4.6511    93.0425 C.3        1          -0.1452
     25 C18         1.2680    -4.8663    94.1035 C.3        1          -0.1386
     26 C19         1.6223    -6.1008    94.9374 C.3        1          -0.1471
     27 C20         3.0093    -5.9095    95.5552 C.3        1          -0.0071
     28 C21         5.5887    -7.5505    96.6738 C.ar       1          -0.0965
     29 C22         6.0506    -8.8139    96.9929 C.ar       1          -0.1097
     30 C23         6.7684    -9.5440    96.0626 C.ar       1           0.1095
     31 F1          7.2148   -10.7810    96.3719 F          1          -0.1144
     32 N5          6.6188    -8.0551    89.1634 N.ar       1          -0.6780
     33 C24         6.3033    -6.8739    88.6417 C.ar       1           0.6593
     34 N6          5.0272    -6.5243    88.5114 N.ar       1          -0.6770
     35 N7          7.3002    -6.0127    88.2304 N.pl3      1          -0.5966
     36 C25         8.7185    -6.3832    88.3543 C.3        1           0.1049
     37 C26         9.4019    -6.1469    87.0034 C.3        1          -0.0216
     38 N8          9.1726    -4.7611    86.5757 N.4        1          -0.5062
     39 H2          9.4931    -4.1308    87.2955 H          1           0.4299
     40 H3          9.6837    -4.5844    85.7238 H          1           0.4354
     41 C27         7.7405    -4.5416    86.3375 C.3        1          -0.0213
     42 C28         6.9745    -4.7006    87.6503 C.3        1           0.1041
     43 C29        -0.1601    -6.3920    86.2469 C.ar       1          -0.0955
     44 C30        -1.1630    -7.2998    85.9664 C.ar       1          -0.1441
     45 H4         -1.5374   -10.4564    85.4893 H          1           0.3848
     46 H5          0.6899   -10.1260    85.8672 H          1           0.1313
     47 H6          2.4721    -8.5004    86.3573 H          1           0.1288
     48 H7          3.1769    -6.1814    86.2561 H          1           0.0840
     49 H8          1.9800    -4.8639    86.2543 H          1           0.0847
     50 H9          3.1854    -4.9686    88.4187 H          1           0.0723
     51 H10         1.4568    -5.3362    88.6317 H          1           0.0715
     52 H11         2.0420    -7.5900    89.0746 H          1           0.4190
     53 H12         5.2854   -10.7163    90.3905 H          1           0.4197
     54 H13         7.5766   -11.4074    89.6674 H          1           0.0752
     55 H14         8.0286    -9.6971    89.8648 H          1           0.0737
     56 H15         7.0716   -11.5536    92.0906 H          1           0.0881
     57 H16         8.7542   -11.0406    91.8185 H          1           0.0895
     58 H17         8.0856    -8.6751    92.1440 H          1           0.0727
     59 H18         6.4030    -9.1882    92.4162 H          1           0.0685
     60 H19         6.7715    -7.3108    93.5231 H          1           0.1448
     61 H20         5.2932    -5.0285    95.9894 H          1           0.1433
     62 H21         6.0218    -5.1649    94.3711 H          1           0.1364
     63 H22         3.6912    -3.6624    94.4088 H          1           0.1266
     64 H23         4.4847    -4.3616    92.9778 H          1           0.1275
     65 H24         2.1349    -3.7423    92.4808 H          1           0.1099
     66 H25         2.3702    -5.5035    92.3636 H          1           0.0881
     67 H26         1.2137    -3.9917    94.7516 H          1           0.0811
     68 H27         0.3053    -5.0201    93.6155 H          1           0.0948
     69 H28         0.8852    -6.2284    95.7302 H          1           0.1142
     70 H29         1.6262    -6.9834    94.2978 H          1           0.0888
     71 H30         3.2641    -6.7860    96.1509 H          1           0.1325
     72 H31         3.0046    -5.0261    96.1938 H          1           0.1286
     73 H32         5.0243    -6.9838    97.3995 H          1           0.1464
     74 H33         5.8472    -9.2329    97.9673 H          1           0.1589
     75 H34         9.1930    -5.7664    89.1175 H          1           0.0951
     76 H35         8.7997    -7.4354    88.6269 H          1           0.1413
     77 H36        10.4728    -6.3245    87.1019 H          1           0.1485
     78 H37         8.9869    -6.8296    86.2618 H          1           0.1337
     79 H38         7.5871    -3.5362    85.9454 H          1           0.1491
     80 H39         7.3758    -5.2728    85.6161 H          1           0.1337
     81 H40         5.9034    -4.6411    87.4575 H          1           0.1420
     82 H41         7.2698    -3.9110    88.3412 H          1           0.0948
     83 H42        -0.3959    -5.3435    86.3539 H          1           0.1276
     84 H43        -2.1825    -6.9613    85.8543 H          1           0.1294
@<TRIPOS>BOND
     1    1    2 1
     2    1   45 1
     3    2   44 ar
     4    2    3 ar
     5    3    4 ar
     6    3   46 1
     7    4    5 ar
     8    4   47 1
     9    5    6 1
    10    5   43 ar
    11    6    7 1
    12    6   48 1
    13    6   49 1
    14    7    8 1
    15    7   50 1
    16    7   51 1
    17    8    9 1
    18    8   52 1
    19    9   34 ar
    20    9   10 ar
    21   10   11 ar
    22   11   12 1
    23   11   32 ar
    24   12   13 1
    25   12   53 1
    26   13   14 1
    27   13   54 1
    28   13   55 1
    29   14   15 1
    30   14   56 1
    31   14   57 1
    32   15   16 1
    33   15   58 1
    34   15   59 1
    35   16   17 1
    36   17   30 ar
    37   17   18 ar
    38   18   19 ar
    39   18   60 1
    40   19   20 1
    41   19   28 ar
    42   20   21 1
    43   20   61 1
    44   20   62 1
    45   21   22 1
    46   21   27 1
    47   21   23 1
    48   23   24 1
    49   23   63 1
    50   23   64 1
    51   24   25 1
    52   24   65 1
    53   24   66 1
    54   25   26 1
    55   25   67 1
    56   25   68 1
    57   26   27 1
    58   26   69 1
    59   26   70 1
    60   27   71 1
    61   27   72 1
    62   28   29 ar
    63   28   73 1
    64   29   30 ar
    65   29   74 1
    66   30   31 1
    67   32   33 ar
    68   33   34 ar
    69   33   35 1
    70   35   42 1
    71   35   36 1
    72   36   37 1
    73   36   75 1
    74   36   76 1
    75   37   38 1
    76   37   77 1
    77   37   78 1
    78   38   39 1
    79   38   40 1
    80   38   41 1
    81   41   42 1
    82   41   79 1
    83   41   80 1
    84   42   81 1
    85   42   82 1
    86   43   44 ar
    87   43   83 1
    88   44   84 1
##########                 Name:              T531768
##########          Protonation:                   96
##########               SMILES:   c1ccc(cc1)[C@H](c2ccc(c(c2)Cl)Cl)[NH2+]CCCNc3cc(=O)c4ccccc4[nH]3
##########            Long Name:   lorophenyl)-phenyl-methyl]-[3-[(4-oxo-1H-quinolin-2-yl)amino]propyl]ammonium
##########          FlexRecCode: 1
##########               Number:                  106
##########   Ligand Source File: /raidb/db2/rgc/tcams/tcams-0000871.db2.gz
##########           GlobalRank: 428
##########                 Rank:                    1
##########               Setnum:                   13
##########             Matchnum:                 3732
##########                Cloud:                    1
##########        Electrostatic:           -35.441078
##########        Van der Waals:           -31.215746
##########  Ligand Polar Desolv:             6.812630
########## Ligand Apolar Desolv:            -4.136033
##########      Internal Energy:             0.000000
##########      Receptor Energy: 0.0
########## Receptor Desolvation:             0.000000
########## Receptor Hydrophobic:             0.000000
##########         Total Energy: -63.98
##########        Ligand Charge:             1.000000
##########            Arbitrary:    +999.9990
##########     heavy atom count:   31
##########           pose count:    1
##########        Ligand Energy:             0.000000
# num electro vdwattr vdwrepu polsolv apolsol rdesolv rhydroe totalscore fullpol fullapo
#   1    0.27   -7.26    6.54   -0.76   -0.56    0.00    0.00      -1.78   -1.30   -0.95
#   2    0.21   -1.98    0.51   -0.49   -0.13    0.00    0.00      -1.88   -1.09   -0.29
#   3    2.09   -2.09    0.61   -1.11   -0.21    0.00    0.00      -0.72   -2.38   -0.46
#   4    1.94   -1.52    0.32   -0.47   -0.17    0.00    0.00       0.11   -1.21   -0.45
#   5    2.32   -1.01    0.14   -0.61   -0.10    0.00    0.00       0.73   -2.14   -0.34
#   6    1.14   -1.13    0.15   -0.65   -0.13    0.00    0.00      -0.62   -2.08   -0.42
#   7    0.32   -1.37    0.19   -0.47   -0.11    0.00    0.00      -1.44   -1.25   -0.29
#   8    0.20   -3.15    0.98   -0.60   -0.42    0.00    0.00      -2.99   -1.37   -0.95
#   9   -2.25   -0.43    0.03    1.50   -0.05    0.00    0.00      -1.20    6.49   -0.23
#  10   14.89   -1.01    0.40   -4.91    0.13    0.00    0.00       9.50  -19.80    0.52
#  11  -16.30   -0.03    0.00    3.47    0.07    0.00    0.00     -12.80   17.85    0.34
#  12  -15.10   -0.03    0.00    5.34    0.15    0.00    0.00      -9.64   20.42    0.56
#  13    0.16   -0.34    0.03    0.04   -0.07    0.00    0.00      -0.18    0.23   -0.38
#  14    4.25   -0.70    0.15   -1.31   -0.06    0.00    0.00       2.32   -5.54   -0.24
#  15   -1.48   -0.27    0.01    0.31   -0.06    0.00    0.00      -1.49    1.94   -0.37
#  16    9.72   -0.80    0.07   -3.93    0.43    0.00    0.00       5.49  -15.47    1.68
#  17   -2.01   -0.97    0.13    2.10   -0.52    0.00    0.00      -1.28    8.15   -2.03
#  18    1.81   -1.83    0.47   -1.10   -0.17    0.00    0.00      -0.83   -2.85   -0.45
#  19   -1.79   -2.26    0.86   -0.43   -0.14    0.00    0.00      -3.76   -0.95   -0.31
#  20    2.37   -2.90    1.97    3.08    0.24    0.00    0.00       4.76    5.62    0.44
#  21    0.61   -1.77    0.53   -0.26   -0.17    0.00    0.00      -1.06   -0.63   -0.41
#  22    0.08   -2.30    0.58   -0.12   -0.22    0.00    0.00      -1.97   -0.24   -0.45
#  23    0.31   -1.80    0.32   -0.39   -0.20    0.00    0.00      -1.76   -0.91   -0.47
#  24    0.10   -0.76    0.04   -0.20   -0.13    0.00    0.00      -0.94   -0.70   -0.47
#  25    0.35   -0.56    0.05   -0.33   -0.08    0.00    0.00      -0.57   -1.86   -0.46
#  26   -0.54   -1.00    0.25    0.51   -0.18    0.00    0.00      -0.97    2.03   -0.72
#  27    2.01   -0.70    0.10   -1.80    0.19    0.00    0.00      -0.20   -9.54    1.01
#  28    1.26   -0.76    0.14   -0.60   -0.05    0.00    0.00      -0.02   -3.10   -0.26
#  29    1.49   -0.74    0.10   -0.58   -0.08    0.00    0.00       0.17   -2.82   -0.40
#  30    1.02   -0.82    0.12   -0.72   -0.11    0.00    0.00      -0.50   -3.08   -0.47
#  31    0.40   -0.93    0.19   -0.70   -0.12    0.00    0.00      -1.17   -2.70   -0.47
#  32    0.05   -1.12    0.41   -0.66   -0.10    0.00    0.00      -1.42   -3.10   -0.47
#  33    0.18   -1.05    0.41   -0.37   -0.08    0.00    0.00      -0.91   -2.01   -0.45
#  34   -4.36   -0.67    0.52    1.22   -0.15    0.00    0.00      -3.44    2.34   -0.28
#  35   -6.50   -0.56    0.64    1.84   -0.08    0.00    0.00      -4.65    6.57   -0.28
#  36   -0.79   -0.21    0.02    1.21   -0.04    0.00    0.00       0.19    6.50   -0.22
#  37   -1.66   -0.11    0.01    1.07   -0.03    0.00    0.00      -0.73   10.09   -0.27
#  38   -2.03   -0.06    0.00    0.46   -0.02    0.00    0.00      -1.64    8.23   -0.28
#  39   -1.96   -0.05    0.00    0.29   -0.01    0.00    0.00      -1.74    5.30   -0.23
#  40   -3.56   -0.45    0.20    0.99   -0.07    0.00    0.00      -2.88    3.99   -0.28
#  41   -3.17   -0.30    0.08    1.07   -0.06    0.00    0.00      -2.39    4.69   -0.28
#  42   -0.83   -0.04    0.00    0.15   -0.01    0.00    0.00      -0.73    3.64   -0.27
#  43   -0.61   -0.05    0.00    0.14   -0.01    0.00    0.00      -0.53    3.10   -0.27
#  44  -10.03   -0.02    0.00    2.19    0.12    0.00    0.00      -7.73   10.12    0.57
#  45   -2.21   -0.52    0.20    0.19   -0.09    0.00    0.00      -2.43    0.56   -0.28
#  46   -0.39   -0.95    0.91   -0.30   -0.15    0.00    0.00      -0.88   -0.56   -0.27
#  47   -0.23   -0.62    0.24    0.36   -0.11    0.00    0.00      -0.37    0.88   -0.28
#  48   -0.17   -0.10    0.00    0.24   -0.03    0.00    0.00      -0.06    2.63   -0.28
#  49   -0.22   -0.05    0.00    0.23   -0.01    0.00    0.00      -0.06    4.39   -0.28
#  50   -1.14    0.00    0.00    0.75    0.03    0.00    0.00      -0.36   10.74    0.46
#  51   -2.23   -0.12    0.00    0.62   -0.02    0.00    0.00      -1.75    6.06   -0.21
#  52   -2.38   -0.14    0.00    0.27   -0.04    0.00    0.00      -2.29    2.01   -0.28
#  53   -0.83   -0.16    0.01    0.19   -0.06    0.00    0.00      -0.84    0.98   -0.28
#  54   -0.06   -0.16    0.03    0.26   -0.04    0.00    0.00       0.03    1.79   -0.28
#  55   -0.16   -0.15    0.04    0.60   -0.03    0.00    0.00       0.30    5.36   -0.28

@<TRIPOS>MOLECULE
          T531768        96
   55    58     0     0     0



@<TRIPOS>ATOM
      1 Cl1         8.2328    -6.5911    98.4963 Cl         1          -0.0144
      2 C1          7.5687    -6.9968    96.9445 C.ar       1          -0.0116
      3 C2          7.2131    -5.9941    96.0602 C.ar       1          -0.0837
      4 C3          6.6844    -6.3175    94.8249 C.ar       1          -0.0671
      5 C4          6.5105    -7.6431    94.4720 C.ar       1          -0.1259
      6 C5          6.8657    -8.6461    95.3541 C.ar       1          -0.1018
      7 C6          7.3999    -8.3241    96.5890 C.ar       1          -0.0241
      8 Cl2         7.8522    -9.5837    97.6947 Cl         1          -0.0186
      9 C7          5.9330    -7.9943    93.1252 C.3        1           0.1396
     10 N1          6.2918    -6.9538    92.1522 N.4        1          -0.5087
     11 H1          5.6730    -6.1642    92.2605 H          1           0.4236
     12 H2          7.2439    -6.6593    92.3104 H          1           0.4350
     13 C8          6.1655    -7.4917    90.7911 C.3        1          -0.0082
     14 C9          6.5392    -6.4081    89.7777 C.3        1          -0.1605
     15 C10         6.4076    -6.9683    88.3600 C.3        1           0.1097
     16 N2          6.7654    -5.9308    87.3897 N.pl3      1          -0.7348
     17 C11         6.1832    -5.9237    86.1458 C.2        1           0.4740
     18 C12         6.1982    -4.7623    85.4098 C.2        1          -0.3971
     19 C13         5.6094    -4.7322    84.1355 C.2        1           0.4274
     20 O1          5.6125    -3.7107    83.4658 O.2        1          -0.5037
     21 C14         4.9876    -5.9702    83.6288 C.ar       1          -0.1889
     22 C15         4.3847    -6.0138    82.3719 C.ar       1          -0.0309
     23 C16         3.8143    -7.1871    81.9310 C.ar       1          -0.1503
     24 C17         3.8371    -8.3217    82.7297 C.ar       1          -0.0587
     25 C18         4.4287    -8.2932    83.9736 C.ar       1          -0.1720
     26 C19         5.0110    -7.1178    84.4375 C.ar       1           0.1903
     27 N3          5.6145    -7.0679    85.6775 N.pl3      1          -0.6280
     28 C20         4.4325    -8.0873    93.2307 C.ar       1          -0.1414
     29 C21         3.7550    -7.3103    94.1517 C.ar       1          -0.1218
     30 C22         2.3786    -7.3957    94.2484 C.ar       1          -0.1007
     31 C23         1.6798    -8.2578    93.4241 C.ar       1          -0.0879
     32 C24         2.3574    -9.0341    92.5026 C.ar       1          -0.1026
     33 C25         3.7333    -8.9455    92.4029 C.ar       1          -0.0843
     34 H3          7.3483    -4.9585    96.3353 H          1           0.1589
     35 H4          6.4067    -5.5345    94.1350 H          1           0.1513
     36 H5          6.7296    -9.6812    95.0778 H          1           0.1357
     37 H6          6.3342    -8.9530    92.7965 H          1           0.1593
     38 H7          6.8339    -8.3447    90.6740 H          1           0.1412
     39 H8          5.1371    -7.8100    90.6202 H          1           0.1401
     40 H9          5.8706    -5.5551    89.8948 H          1           0.1000
     41 H10         7.5676    -6.0900    89.9486 H          1           0.1020
     42 H11         7.0759    -7.8214    88.2430 H          1           0.0775
     43 H12         5.3791    -7.2865    88.1891 H          1           0.0769
     44 H13         7.4135    -5.2487    87.6257 H          1           0.4247
     45 H14         6.6622    -3.8738    85.8120 H          1           0.1449
     46 H15         4.3651    -5.1324    81.7481 H          1           0.1421
     47 H16         3.3463    -7.2245    80.9583 H          1           0.1346
     48 H17         3.3863    -9.2360    82.3727 H          1           0.1350
     49 H18         4.4409    -9.1818    84.5873 H          1           0.1299
     50 H19         5.6306    -7.8654    86.2294 H          1           0.4095
     51 H20         4.3009    -6.6369    94.7956 H          1           0.1159
     52 H21         1.8494    -6.7892    94.9684 H          1           0.1369
     53 H22         0.6047    -8.3250    93.5003 H          1           0.1376
     54 H23         1.8116    -9.7079    91.8589 H          1           0.1390
     55 H24         4.2623    -9.5494    91.6804 H          1           0.1353
@<TRIPOS>BOND
     1    1    2 1
     2    2    7 ar
     3    2    3 ar
     4    3    4 ar
     5    3   34 1
     6    4    5 ar
     7    4   35 1
     8    5    6 ar
     9    5    9 1
    10    6    7 ar
    11    6   36 1
    12    7    8 1
    13    9   10 1
    14    9   28 1
    15    9   37 1
    16   10   11 1
    17   10   12 1
    18   10   13 1
    19   13   14 1
    20   13   38 1
    21   13   39 1
    22   14   15 1
    23   14   40 1
    24   14   41 1
    25   15   16 1
    26   15   42 1
    27   15   43 1
    28   16   17 1
    29   16   44 1
    30   17   27 1
    31   17   18 2
    32   18   19 1
    33   18   45 1
    34   19   20 2
    35   19   21 1
    36   21   26 ar
    37   21   22 ar
    38   22   23 ar
    39   22   46 1
    40   23   24 ar
    41   23   47 1
    42   24   25 ar
    43   24   48 1
    44   25   26 ar
    45   25   49 1
    46   26   27 1
    47   27   50 1
    48   28   33 ar
    49   28   29 ar
    50   29   30 ar
    51   29   51 1
    52   30   31 ar
    53   30   52 1
    54   31   32 ar
    55   31   53 1
    56   32   33 ar
    57   32   54 1
    58   33   55 1
##########                 Name:              T532603
##########          Protonation:                   43
##########               SMILES:   Cc1cccc(c1)c2cccc(c2)CNc3[nH+]c(nc(n3)N4CC[NH2+]CC4)NCCc5ccc(cc5)O
##########            Long Name:   hylamino]-4-piperazin-4-ium-1-yl-1,3,5-triazin-1-ium-2-yl]amino]ethyl]phenol
##########          FlexRecCode: 1
##########               Number:                   18
##########   Ligand Source File: /raidb/db2/rgc/tcams/tcams-0001022.db2.gz
##########           GlobalRank: 428
##########                 Rank:                    1
##########               Setnum:                  369
##########             Matchnum:                 2578
##########                Cloud:                    1
##########        Electrostatic:           -35.283619
##########        Van der Waals:           -31.566677
##########  Ligand Polar Desolv:             8.278437
########## Ligand Apolar Desolv:            -5.409178
##########      Internal Energy:             0.000000
##########      Receptor Energy: 0.0
########## Receptor Desolvation:             0.000000
########## Receptor Hydrophobic:             0.000000
##########         Total Energy: -63.98
##########        Ligand Charge:             2.000000
##########            Arbitrary:    +999.9990
##########     heavy atom count:   37
##########           pose count:    1
##########        Ligand Energy:             0.000000
# num electro vdwattr vdwrepu polsolv apolsol rdesolv rhydroe totalscore fullpol fullapo
#   1    1.26   -1.20    0.16   -0.63   -0.10    0.00    0.00      -0.51   -1.20   -0.20
#   2    0.63   -1.30    0.09   -0.63   -0.20    0.00    0.00      -1.42   -1.24   -0.40
#   3    1.04   -1.80    0.34   -1.02   -0.25    0.00    0.00      -1.69   -1.86   -0.45
#   4    1.56   -2.02    0.52   -0.94   -0.25    0.00    0.00      -1.13   -1.76   -0.47
#   5    1.75   -1.76    0.26   -0.97   -0.23    0.00    0.00      -0.95   -1.87   -0.44
#   6    0.65   -1.39    0.17   -0.29   -0.16    0.00    0.00      -1.02   -0.73   -0.41
#   7    0.75   -1.26    0.12   -0.67   -0.16    0.00    0.00      -1.22   -1.77   -0.42
#   8    0.33   -1.19    0.09   -0.63   -0.15    0.00    0.00      -1.55   -1.68   -0.41
#   9    1.22   -1.58    0.25   -1.08   -0.20    0.00    0.00      -1.40   -2.34   -0.44
#  10    2.02   -1.82    0.61   -1.24   -0.20    0.00    0.00      -0.62   -2.95   -0.47
#  11    1.94   -0.93    0.05   -0.63   -0.15    0.00    0.00       0.28   -1.90   -0.45
#  12    2.13   -0.79    0.06   -0.64   -0.10    0.00    0.00       0.65   -2.38   -0.37
#  13   -2.24   -0.40    0.02    1.00   -0.08    0.00    0.00      -1.70    4.71   -0.39
#  14   19.85   -1.32    0.58   -5.52    0.43    0.00    0.00      14.02  -22.23    1.74
#  15  -20.04   -1.15    0.41    5.49   -1.09    0.00    0.00     -16.39   24.16   -4.81
#  16   23.26   -2.67    2.15   -6.60    0.29    0.00    0.00      16.44  -22.39    0.99
#  17  -20.74   -0.11    0.02    6.16    0.13    0.00    0.00     -14.54   17.64    0.36
#  18  -18.44   -1.38    0.35    6.57   -1.30    0.00    0.00     -14.20   24.28   -4.81
#  19   19.48   -1.95    0.63   -7.65    0.58    0.00    0.00      11.09  -22.83    1.74
#  20   -1.44   -0.76    0.10    1.11   -0.12    0.00    0.00      -1.11    3.34   -0.37
#  21    2.32   -1.06    0.21   -1.01   -0.09    0.00    0.00       0.36   -2.50   -0.23
#  22    2.59   -0.99    0.09   -0.56   -0.12    0.00    0.00       1.01   -1.70   -0.36
#  23    0.83   -0.77    0.09   -0.48   -0.11    0.00    0.00      -0.43   -1.98   -0.45
#  24    0.33   -0.36    0.01   -0.48   -0.07    0.00    0.00      -0.57   -3.01   -0.46
#  25   -0.53   -0.40    0.01    0.06   -0.05    0.00    0.00      -0.91    0.37   -0.31
#  26    1.13   -0.27    0.00   -0.83    0.16    0.00    0.00       0.20   -6.05    1.19
#  27    2.04   -0.86    0.06   -0.95   -0.15    0.00    0.00       0.15   -3.02   -0.46
#  28    2.23   -1.27    0.18   -0.69   -0.16    0.00    0.00       0.29   -1.95   -0.45
#  29    6.69   -0.60    0.04   -4.36    0.37    0.00    0.00       2.13  -21.77    1.84
#  30   -6.90   -0.34    0.01    3.35   -0.69    0.00    0.00      -4.57   22.60   -4.68
#  31    9.86   -0.40    0.02   -3.22    0.27    0.00    0.00       6.53  -21.62    1.84
#  32    2.07   -0.20    0.00   -1.66    0.14    0.00    0.00       0.36  -20.71    1.70
#  33   -0.17   -0.15    0.00    0.26   -0.04    0.00    0.00      -0.09    2.94   -0.48
#  34    0.03   -0.07    0.00    0.02   -0.02    0.00    0.00      -0.05    0.36   -0.48
#  35    0.50   -0.07    0.00   -0.94    0.04    0.00    0.00      -0.47  -22.77    0.89
#  36   -0.45    0.00    0.00    0.61    0.02    0.00    0.00       0.17   22.51    0.56
#  37   -0.36    0.00    0.00    0.44    0.01    0.00    0.00       0.09   23.30    0.57
#  38    0.02   -0.07    0.00    0.02   -0.03    0.00    0.00      -0.06    0.38   -0.48
#  39   -0.19   -0.10    0.00    0.19   -0.03    0.00    0.00      -0.14    2.88   -0.48
#  40    0.98   -1.01    0.10   -0.57   -0.13    0.00    0.00      -0.62   -1.86   -0.42
#  41   -0.60   -0.54    0.10    0.32   -0.14    0.00    0.00      -0.85    0.63   -0.28
#  42   -0.69   -0.49    0.16    0.32   -0.14    0.00    0.00      -0.83    0.66   -0.28
#  43   -0.90   -0.34    0.07    0.25   -0.09    0.00    0.00      -1.01    0.78   -0.28
#  44   -0.89   -0.58    0.24    0.61   -0.14    0.00    0.00      -0.75    1.25   -0.28
#  45   -2.06   -0.71    0.80    1.23   -0.14    0.00    0.00      -0.88    2.42   -0.28
#  46   -2.24   -0.38    0.04    1.86   -0.10    0.00    0.00      -0.83    3.94   -0.22
#  47   -0.50   -0.24    0.02    0.33   -0.05    0.00    0.00      -0.45    1.41   -0.22
#  48   -2.03   -0.41    0.07    0.49   -0.09    0.00    0.00      -1.97    1.14   -0.22
#  49   -2.90   -0.92    1.03    0.96   -0.12    0.00    0.00      -1.94    2.31   -0.28
#  50   -3.20   -0.16    0.01    0.75   -0.04    0.00    0.00      -2.65    5.05   -0.28
#  51   -0.79   -0.13    0.01    0.59   -0.03    0.00    0.00      -0.35    5.16   -0.27
#  52   -1.59   -0.09    0.00    0.48   -0.02    0.00    0.00      -1.22    5.57   -0.27
#  53  -18.15   -0.04    0.00    3.72    0.15    0.00    0.00     -14.32   14.52    0.58
#  54  -18.37   -0.06    0.00    6.04    0.22    0.00    0.00     -12.17   15.97    0.58
#  55   -0.85   -0.13    0.01    0.53   -0.03    0.00    0.00      -0.47    4.30   -0.27
#  56   -0.71   -0.34    0.09    1.13   -0.07    0.00    0.00       0.10    4.54   -0.27
#  57   -3.05   -0.90    1.63    1.16   -0.09    0.00    0.00      -1.27    3.41   -0.28
#  58   -3.37   -0.42    0.08    1.32   -0.11    0.00    0.00      -2.51    3.23   -0.28
#  59   -1.12   -0.35    0.22    0.92   -0.06    0.00    0.00      -0.38    4.21   -0.28
#  60   -0.26   -0.04    0.00    0.06   -0.01    0.00    0.00      -0.25    1.48   -0.28
#  61   -0.43    0.00    0.00    0.22    0.04    0.00    0.00      -0.17    6.31    1.22
#  62   -1.74   -0.25    0.02    0.50   -0.09    0.00    0.00      -1.55    1.57   -0.28
#  63   -3.98   -0.51    0.24    1.69   -0.11    0.00    0.00      -2.67    4.41   -0.28
#  64   -0.18   -0.06    0.00    0.31   -0.02    0.00    0.00       0.06    5.24   -0.28
#  65   -0.34   -0.06    0.00    0.20   -0.01    0.00    0.00      -0.21    4.18   -0.24
#  66   -0.21   -0.03    0.00    0.26   -0.01    0.00    0.00       0.02    8.44   -0.28
#  67   -0.17   -0.02    0.00    0.14   -0.01    0.00    0.00      -0.06    5.74   -0.28
#  68   -0.11   -0.03    0.00    0.25   -0.01    0.00    0.00       0.11    8.25   -0.28
#  69   -0.09   -0.02    0.00    0.15   -0.01    0.00    0.00       0.04    5.69   -0.28
#  70   -0.42   -0.04    0.00    0.17   -0.01    0.00    0.00      -0.30    3.88   -0.24
#  71   -0.19   -0.03    0.00    0.19   -0.01    0.00    0.00      -0.04    5.16   -0.28
#  72   -1.11   -0.18    0.02    0.71   -0.04    0.00    0.00      -0.60    4.38   -0.22

@<TRIPOS>MOLECULE
          T532603        43
   72    76     0     0     0



@<TRIPOS>ATOM
      1 C1          8.7116   -12.9655    96.4780 C.3        1          -0.1227
      2 C2          8.6722   -11.5743    97.0562 C.ar       1          -0.0754
      3 C3          9.5336   -11.2282    98.0819 C.ar       1          -0.1080
      4 C4          9.5027    -9.9533    98.6171 C.ar       1          -0.1123
      5 C5          8.6116    -9.0187    98.1295 C.ar       1          -0.1159
      6 C6          7.7422    -9.3617    97.0964 C.ar       1          -0.0610
      7 C7          7.7807   -10.6464    96.5576 C.ar       1          -0.1060
      8 C8          6.7816    -8.3614    96.5685 C.ar       1          -0.0282
      9 C9          6.2851    -7.3609    97.4021 C.ar       1          -0.0836
     10 C10         5.3925    -6.4329    96.9059 C.ar       1          -0.1096
     11 C11         4.9903    -6.4945    95.5836 C.ar       1          -0.0944
     12 C12         5.4797    -7.4852    94.7520 C.ar       1          -0.1347
     13 C13         5.0373    -7.5455    93.3127 C.3        1           0.1352
     14 N1          5.9461    -6.7448    92.4885 N.pl3      1          -0.6428
     15 C14         5.7399    -6.6494    91.1272 C.ar       1           0.6978
     16 N2          6.5678    -5.9272    90.3785 N.ar       1          -0.6327
     17 H1          7.3167    -5.4674    90.7890 H          1           0.4422
     18 C15         6.3693    -5.8356    89.0674 C.ar       1           0.6999
     19 N3          7.2290    -5.0862    88.2900 N.pl3      1          -0.6480
     20 C16         7.2998    -5.3174    86.8451 C.3        1           0.0861
     21 C17         8.7080    -4.9898    86.3446 C.3        1          -0.0827
     22 C18         9.7081    -5.8736    87.0443 C.ar       1          -0.1183
     23 C19        10.0486    -7.0973    86.4981 C.ar       1          -0.0927
     24 C20        10.9653    -7.9095    87.1375 C.ar       1          -0.1426
     25 C21        11.5445    -7.4959    88.3285 C.ar       1           0.1244
     26 O1         12.4468    -8.2927    88.9591 O.3        1          -0.4958
     27 C22        11.2015    -6.2674    88.8740 C.ar       1          -0.1427
     28 C23        10.2881    -5.4570    88.2283 C.ar       1          -0.0929
     29 N4          5.3428    -6.4663    88.5048 N.ar       1          -0.6241
     30 C24         4.5151    -7.1879    89.2534 C.ar       1           0.6923
     31 N5          4.7167    -7.2840    90.5640 N.ar       1          -0.6236
     32 N6          3.4494    -7.8422    88.6693 N.pl3      1          -0.5677
     33 C25         3.2139    -7.7601    87.2195 C.3        1           0.0920
     34 C26         3.0329    -9.1811    86.6758 C.3        1          -0.0217
     35 N7          1.9676    -9.8591    87.4252 N.4        1          -0.5088
     36 H2          1.1233    -9.3084    87.3796 H          1           0.4335
     37 H3          1.7979   -10.7671    87.0194 H          1           0.4427
     38 C27         2.3688   -10.0211    88.8284 C.3        1          -0.0215
     39 C28         2.5204    -8.6464    89.4781 C.3        1           0.0911
     40 C29         6.3771    -8.4154    95.2365 C.ar       1          -0.0876
     41 H4          9.4717   -13.5520    96.9942 H          1           0.0770
     42 H5          7.7384   -13.4396    96.6054 H          1           0.0724
     43 H6          8.9533   -12.9112    95.4166 H          1           0.0697
     44 H7         10.2324   -11.9564    98.4663 H          1           0.1288
     45 H8         10.1770    -9.6886    99.4182 H          1           0.1275
     46 H9          8.5881    -8.0235    98.5484 H          1           0.1193
     47 H10         7.1116   -10.9164    95.7541 H          1           0.1270
     48 H11         6.5982    -7.3121    98.4346 H          1           0.1363
     49 H12         5.0068    -5.6573    97.5510 H          1           0.1365
     50 H13         4.2911    -5.7664    95.1995 H          1           0.1272
     51 H14         5.0532    -8.5804    92.9708 H          1           0.0986
     52 H15         4.0252    -7.1499    93.2267 H          1           0.0995
     53 H16         6.6927    -6.2818    92.8995 H          1           0.4470
     54 H17         7.7861    -4.4065    88.7003 H          1           0.4469
     55 H18         7.0725    -6.3621    86.6327 H          1           0.0936
     56 H19         6.5764    -4.6781    86.3390 H          1           0.0934
     57 H20         8.7607    -5.1617    85.2695 H          1           0.0938
     58 H21         8.9352    -3.9450    86.5570 H          1           0.0942
     59 H22         9.5974    -7.4188    85.5710 H          1           0.1283
     60 H23        11.2304    -8.8655    86.7109 H          1           0.1356
     61 H24        12.6213    -9.1272    88.5029 H          1           0.3985
     62 H25        11.6508    -5.9434    89.8011 H          1           0.1354
     63 H26        10.0237    -4.4986    88.6505 H          1           0.1280
     64 H27         2.3136    -7.1769    87.0271 H          1           0.1133
     65 H28         4.0695    -7.2890    86.7356 H          1           0.1481
     66 H29         2.7622    -9.1349    85.6209 H          1           0.1584
     67 H30         3.9651    -9.7348    86.7878 H          1           0.1387
     68 H31         1.6088   -10.5938    89.3598 H          1           0.1587
     69 H32         3.3210   -10.5494    88.8755 H          1           0.1387
     70 H33         2.9174    -8.7609    90.4867 H          1           0.1483
     71 H34         1.5486    -8.1540    89.5176 H          1           0.1129
     72 H35         6.7620    -9.1862    94.5852 H          1           0.1293
@<TRIPOS>BOND
     1    1    2 1
     2    1   41 1
     3    1   42 1
     4    1   43 1
     5    2    7 ar
     6    2    3 ar
     7    3    4 ar
     8    3   44 1
     9    4    5 ar
    10    4   45 1
    11    5    6 ar
    12    5   46 1
    13    6    7 ar
    14    6    8 1
    15    7   47 1
    16    8   40 ar
    17    8    9 ar
    18    9   10 ar
    19    9   48 1
    20   10   11 ar
    21   10   49 1
    22   11   12 ar
    23   11   50 1
    24   12   13 1
    25   12   40 ar
    26   13   14 1
    27   13   51 1
    28   13   52 1
    29   14   15 1
    30   14   53 1
    31   15   31 ar
    32   15   16 ar
    33   16   17 1
    34   16   18 ar
    35   18   19 1
    36   18   29 ar
    37   19   20 1
    38   19   54 1
    39   20   21 1
    40   20   55 1
    41   20   56 1
    42   21   22 1
    43   21   57 1
    44   21   58 1
    45   22   28 ar
    46   22   23 ar
    47   23   24 ar
    48   23   59 1
    49   24   25 ar
    50   24   60 1
    51   25   26 1
    52   25   27 ar
    53   26   61 1
    54   27   28 ar
    55   27   62 1
    56   28   63 1
    57   29   30 ar
    58   30   31 ar
    59   30   32 1
    60   32   39 1
    61   32   33 1
    62   33   34 1
    63   33   64 1
    64   33   65 1
    65   34   35 1
    66   34   66 1
    67   34   67 1
    68   35   36 1
    69   35   37 1
    70   35   38 1
    71   38   39 1
    72   38   68 1
    73   38   69 1
    74   39   70 1
    75   39   71 1
    76   40   72 1
##########                 Name:              T542640
##########          Protonation:                  100
##########               SMILES:   CN(C)c1cc(cc2c1cc[nH]2)C(=O)N[C@@H](Cc3ccccc3)[C@H](C[NH2+]C4CCCCC4)O
##########            Long Name:   dimethylamino)-1H-indole-6-carbonyl]amino]-2-hydroxy-4-phenyl-butyl]ammonium
##########          FlexRecCode: 1
##########               Number:                   13
##########   Ligand Source File: /raidb/db2/rgc/tcams/tcams-0002268.db2.gz
##########           GlobalRank: 428
##########                 Rank:                    1
##########               Setnum:                   12
##########             Matchnum:                 1064
##########                Cloud:                    1
##########        Electrostatic:           -42.435009
##########        Van der Waals:           -27.653130
##########  Ligand Polar Desolv:             9.041148
########## Ligand Apolar Desolv:            -2.930577
##########      Internal Energy:             0.000000
##########      Receptor Energy: 0.0
########## Receptor Desolvation:             0.000000
########## Receptor Hydrophobic:             0.000000
##########         Total Energy: -63.98
##########        Ligand Charge:             1.000000
##########            Arbitrary:    +999.9990
##########     heavy atom count:   33
##########           pose count:    1
##########        Ligand Energy:             0.000000
# num electro vdwattr vdwrepu polsolv apolsol rdesolv rhydroe totalscore fullpol fullapo
#   1   -0.15   -0.50    0.05    0.11   -0.14    0.00    0.00      -0.63    0.46   -0.58
#   2    1.00   -0.28    0.01   -0.21    0.22    0.00    0.00       0.74   -1.75    1.85
#   3   -0.13   -0.09    0.00    0.02   -0.03    0.00    0.00      -0.23    0.36   -0.57
#   4   -0.51   -0.33    0.01    0.06   -0.08    0.00    0.00      -0.85    0.43   -0.55
#   5    0.27   -0.58    0.05   -0.18   -0.09    0.00    0.00      -0.54   -0.93   -0.44
#   6    0.61   -0.87    0.15   -0.40   -0.11    0.00    0.00      -0.62   -1.81   -0.51
#   7   -0.34   -1.33    0.43    0.28   -0.27    0.00    0.00      -1.23    1.03   -1.00
#   8   12.94   -1.61    0.49   -2.34    0.34    0.00    0.00       9.82   -8.00    1.17
#   9   -1.38   -0.90    0.11    0.22   -0.19    0.00    0.00      -2.13    0.91   -0.78
#  10    2.23   -0.80    0.10   -0.17   -0.11    0.00    0.00       1.26   -0.71   -0.45
#  11    1.25   -0.40    0.01   -0.23   -0.07    0.00    0.00       0.56   -1.42   -0.41
#  12    0.41   -0.29    0.01   -0.08   -0.05    0.00    0.00       0.00   -0.68   -0.44
#  13   -6.33   -0.41    0.01    1.29   -0.08    0.00    0.00      -5.51    7.85   -0.48
#  14    2.32   -0.44    0.02   -0.79    0.06    0.00    0.00       1.17   -4.45    0.32
#  15   14.11   -0.55    0.02   -3.24    0.36    0.00    0.00      10.69  -15.25    1.69
#  16   -2.05   -0.45    0.02    0.72   -0.05    0.00    0.00      -1.81    2.98   -0.20
#  17    2.00   -0.69    0.04   -0.61   -0.07    0.00    0.00       0.67   -1.67   -0.20
#  18    1.80   -1.11    0.10   -0.20   -0.08    0.00    0.00       0.51   -0.57   -0.23
#  19    1.68   -1.40    0.18   -0.42   -0.18    0.00    0.00      -0.15   -1.04   -0.45
#  20    1.71   -1.39    0.17   -0.29   -0.20    0.00    0.00       0.01   -0.66   -0.47
#  21    2.28   -2.15    0.76   -0.20   -0.20    0.00    0.00       0.49   -0.47   -0.47
#  22    3.23   -2.31    0.97   -0.25   -0.21    0.00    0.00       1.43   -0.57   -0.47
#  23    3.49   -1.49    0.33   -0.38   -0.13    0.00    0.00       1.82   -0.93   -0.32
#  24   -1.54   -0.54    0.03    1.10   -0.04    0.00    0.00      -1.00    3.52   -0.13
#  25   14.51   -1.59    0.57   -8.36    0.76    0.00    0.00       5.89  -17.18    1.56
#  26    1.21   -0.67    0.04   -0.47   -0.12    0.00    0.00       0.00   -1.35   -0.35
#  27   14.32   -1.37    0.31   -6.91    0.25    0.00    0.00       6.61  -17.18    0.63
#  28  -11.80   -0.02    0.00    4.58    0.14    0.00    0.00      -7.11   18.18    0.56
#  29  -16.50   -0.07    0.01    6.70    0.20    0.00    0.00      -9.66   17.53    0.53
#  30   -0.59   -1.20    0.19    1.03   -0.11    0.00    0.00      -0.67    2.14   -0.22
#  31    3.46   -1.60    0.28   -2.30   -0.12    0.00    0.00      -0.27   -3.94   -0.21
#  32    2.82   -2.34    0.97   -1.80   -0.17    0.00    0.00      -0.53   -2.60   -0.25
#  33    3.10   -1.76    0.31   -1.58   -0.16    0.00    0.00      -0.10   -2.45   -0.25
#  34    2.71   -1.95    0.46   -1.48   -0.14    0.00    0.00      -0.41   -2.59   -0.25
#  35    2.80   -1.06    0.14   -1.67   -0.10    0.00    0.00       0.11   -3.67   -0.23
#  36   -0.09   -0.34    0.12    0.09   -0.06    0.00    0.00      -0.29    0.37   -0.26
#  37   -0.06   -0.16    0.02    0.01   -0.05    0.00    0.00      -0.23    0.08   -0.28
#  38   -0.04   -0.13    0.01    0.02   -0.04    0.00    0.00      -0.19    0.10   -0.28
#  39   -0.04   -0.02    0.00    0.00   -0.01    0.00    0.00      -0.06    0.05   -0.28
#  40   -0.06   -0.03    0.00    0.00   -0.01    0.00    0.00      -0.09    0.04   -0.28
#  41   -0.07   -0.02    0.00    0.01   -0.01    0.00    0.00      -0.09    0.26   -0.27
#  42   -0.39   -0.14    0.01    0.05   -0.03    0.00    0.00      -0.51    0.38   -0.28
#  43   -1.13   -0.25    0.04    0.65   -0.06    0.00    0.00      -0.75    3.23   -0.28
#  44  -14.92   -0.04    0.00    2.57    0.17    0.00    0.00     -12.21    8.68    0.59
#  45   -3.80   -0.29    0.10    1.02   -0.04    0.00    0.00      -3.01    5.55   -0.22
#  46   -0.26   -0.04    0.00   -0.01   -0.01    0.00    0.00      -0.31   -0.16   -0.27
#  47  -11.17   -0.01    0.00    1.93    0.05    0.00    0.00      -9.20   11.89    0.33
#  48   -0.67   -0.23    0.07    0.31   -0.04    0.00    0.00      -0.57    1.89   -0.26
#  49   -2.46   -0.25    0.02    0.49   -0.07    0.00    0.00      -2.27    1.90   -0.26
#  50   -1.99   -0.28    0.02    0.68   -0.09    0.00    0.00      -1.65    2.25   -0.28
#  51   -1.44   -0.37    0.06    0.67   -0.11    0.00    0.00      -1.19    1.77   -0.28
#  52   -1.61   -0.29    0.03    0.15   -0.09    0.00    0.00      -1.82    0.46   -0.28
#  53   -2.29   -1.08    1.43    0.01   -0.11    0.00    0.00      -2.03    0.03   -0.28
#  54   -4.15   -1.27    3.33    0.09   -0.13    0.00    0.00      -2.13    0.20   -0.28
#  55   -5.03   -0.67    1.13    0.40   -0.08    0.00    0.00      -4.26    1.42   -0.28
#  56   -2.03   -0.13    0.00    0.91   -0.04    0.00    0.00      -1.29    5.86   -0.28
#  57  -15.88   -0.11    0.03    5.48    0.41    0.00    0.00     -10.07   13.47    1.01
#  58   -3.47   -0.32    0.06    1.52   -0.06    0.00    0.00      -2.27    5.29   -0.20
#  59   -2.86   -0.17    0.01    1.00   -0.05    0.00    0.00      -2.07    5.77   -0.28
#  60   -3.36   -0.79    0.69    2.02   -0.11    0.00    0.00      -1.55    4.98   -0.28
#  61   -2.16   -0.50    0.14    1.42   -0.12    0.00    0.00      -1.22    3.39   -0.28
#  62   -2.14   -0.88    0.48    2.06   -0.12    0.00    0.00      -0.60    3.60   -0.21
#  63   -2.01   -0.82    0.35    0.36   -0.16    0.00    0.00      -2.28    0.62   -0.28
#  64   -1.78   -2.07    4.48    0.55   -0.15    0.00    0.00       1.03    1.04   -0.28
#  65   -1.66   -0.52    0.17    0.53   -0.13    0.00    0.00      -1.62    1.15   -0.28
#  66   -1.86   -0.76    0.17   -0.09   -0.18    0.00    0.00      -2.72   -0.15   -0.28
#  67   -1.89   -1.08    1.11    0.26   -0.15    0.00    0.00      -1.75    0.49   -0.28
#  68   -1.72   -1.16    1.10    0.61   -0.16    0.00    0.00      -1.33    1.10   -0.28
#  69   -1.16   -0.49    0.31    0.96   -0.08    0.00    0.00      -0.45    3.40   -0.28
#  70   -1.71   -0.26    0.03    0.77   -0.07    0.00    0.00      -1.24    2.93   -0.28

@<TRIPOS>MOLECULE
          T542640       100
   70    73     0     0     0



@<TRIPOS>ATOM
      1 C1          1.3451    -6.4139    86.4752 C.3        1           0.1166
      2 N1          1.8495    -7.4337    87.3983 N.pl3      1          -0.6858
      3 C2          1.4584    -8.8350    87.2265 C.3        1           0.1168
      4 C3          2.7029    -7.0699    88.4418 C.ar       1           0.2205
      5 C4          3.9381    -6.4621    88.1635 C.ar       1          -0.0865
      6 C5          4.6207    -6.0767    86.9289 C.2        1          -0.1937
      7 C6          5.7951    -5.5271    87.2836 C.2        1           0.0616
      8 N2          5.9183    -5.5298    88.6449 N.pl3      1          -0.5956
      9 C7          4.7984    -6.0954    89.2150 C.ar       1           0.0902
     10 C8          4.4196    -6.3385    90.5281 C.ar       1          -0.1044
     11 C9          3.1944    -6.9420    90.7978 C.ar       1          -0.1105
     12 C10         2.3343    -7.3008    89.7503 C.ar       1          -0.0995
     13 C11         2.7950    -7.1990    92.1954 C.2        1           0.5681
     14 O1          2.0270    -8.1063    92.4512 O.2        1          -0.4926
     15 N3          3.2815    -6.4278    93.1878 N.am       1          -0.7406
     16 C12         2.8851    -6.6827    94.5749 C.3        1           0.1267
     17 C13         3.5738    -5.6735    95.4959 C.3        1          -0.0846
     18 C14         4.9922    -6.1134    95.7517 C.ar       1          -0.0789
     19 C15         5.2768    -6.9422    96.8209 C.ar       1          -0.1065
     20 C16         6.5779    -7.3457    97.0555 C.ar       1          -0.1113
     21 C17         7.5945    -6.9209    96.2208 C.ar       1          -0.1124
     22 C18         7.3099    -6.0928    95.1510 C.ar       1          -0.1097
     23 C19         6.0081    -5.6928    94.9138 C.ar       1          -0.1069
     24 C20         1.3674    -6.5399    94.7060 C.3        1           0.0784
     25 O2          0.9807    -6.7886    96.0592 O.3        1          -0.5436
     26 C21         0.9525    -5.1218    94.3095 C.3        1          -0.0515
     27 N4         -0.5048    -4.9847    94.4353 N.4        1          -0.5025
     28 H1         -0.9589    -5.6503    93.8281 H          1           0.4296
     29 H2         -0.7777    -5.1602    95.3907 H          1           0.4288
     30 C22        -0.9032    -3.6231    94.0545 C.3        1           0.0240
     31 C23        -2.2834    -3.3136    94.6378 C.3        1          -0.1407
     32 C24        -2.6984    -1.8954    94.2411 C.3        1          -0.1178
     33 C25        -2.7534    -1.7878    92.7158 C.3        1          -0.1318
     34 C26        -1.3733    -2.0972    92.1327 C.3        1          -0.1180
     35 C27        -0.9582    -3.5155    92.5293 C.3        1          -0.1402
     36 H3          1.7411    -5.4390    86.7593 H          1           0.0692
     37 H4          1.6630    -6.6534    85.4604 H          1           0.0404
     38 H5          0.2563    -6.3908    86.5189 H          1           0.0412
     39 H6          1.9282    -9.4409    88.0011 H          1           0.0365
     40 H7          0.3748    -8.9219    87.3046 H          1           0.0540
     41 H8          1.7812    -9.1846    86.2458 H          1           0.0613
     42 H9          4.2515    -6.2091    85.9227 H          1           0.1484
     43 H10         6.5320    -5.1409    86.5950 H          1           0.1756
     44 H11         6.6804    -5.1853    89.1361 H          1           0.4165
     45 H12         5.0751    -6.0600    91.3399 H          1           0.1139
     46 H13         1.3831    -7.7637    89.9685 H          1           0.1364
     47 H14         3.8943    -5.7041    92.9837 H          1           0.3892
     48 H15         3.1807    -7.6931    94.8575 H          1           0.1124
     49 H16         3.5777    -4.6922    95.0214 H          1           0.0834
     50 H17         3.0346    -5.6177    96.4415 H          1           0.0849
     51 H18         4.4824    -7.2741    97.4731 H          1           0.1137
     52 H19         6.8002    -7.9926    97.8913 H          1           0.1190
     53 H20         8.6111    -7.2355    96.4045 H          1           0.1189
     54 H21         8.1042    -5.7606    94.4991 H          1           0.1161
     55 H22         5.7852    -5.0489    94.0759 H          1           0.1080
     56 H23         0.8768    -7.2590    94.0501 H          1           0.1418
     57 H24         0.0293    -6.7152    96.2162 H          1           0.3829
     58 H25         1.4430    -4.4027    94.9655 H          1           0.1358
     59 H26         1.2474    -4.9322    93.2774 H          1           0.1470
     60 H27        -0.1764    -2.9097    94.4431 H          1           0.1396
     61 H28        -3.0103    -4.0268    94.2492 H          1           0.0869
     62 H29        -2.2442    -3.3901    95.7244 H          1           0.0845
     63 H30        -3.6818    -1.6748    94.6567 H          1           0.0844
     64 H31        -1.9715    -1.1821    94.6296 H          1           0.0750
     65 H32        -3.4802    -2.5011    92.3274 H          1           0.0703
     66 H33        -3.0491    -0.7774    92.4333 H          1           0.0801
     67 H34        -1.4124    -2.0206    91.0461 H          1           0.0860
     68 H35        -0.6463    -1.3839    92.5212 H          1           0.0750
     69 H36         0.0252    -3.7359    92.1140 H          1           0.0885
     70 H37        -1.6851    -4.2288    92.1407 H          1           0.0875
@<TRIPOS>BOND
     1    1    2 1
     2    1   36 1
     3    1   37 1
     4    1   38 1
     5    2    3 1
     6    2    4 1
     7    3   39 1
     8    3   40 1
     9    3   41 1
    10    4   12 ar
    11    4    5 ar
    12    5    9 ar
    13    5    6 1
    14    6    7 2
    15    6   42 1
    16    7    8 1
    17    7   43 1
    18    8    9 1
    19    8   44 1
    20    9   10 ar
    21   10   11 ar
    22   10   45 1
    23   11   12 ar
    24   11   13 1
    25   12   46 1
    26   13   14 2
    27   13   15 am
    28   15   16 1
    29   15   47 1
    30   16   17 1
    31   16   24 1
    32   16   48 1
    33   17   18 1
    34   17   49 1
    35   17   50 1
    36   18   23 ar
    37   18   19 ar
    38   19   20 ar
    39   19   51 1
    40   20   21 ar
    41   20   52 1
    42   21   22 ar
    43   21   53 1
    44   22   23 ar
    45   22   54 1
    46   23   55 1
    47   24   25 1
    48   24   26 1
    49   24   56 1
    50   25   57 1
    51   26   27 1
    52   26   58 1
    53   26   59 1
    54   27   28 1
    55   27   29 1
    56   27   30 1
    57   30   35 1
    58   30   31 1
    59   30   60 1
    60   31   32 1
    61   31   61 1
    62   31   62 1
    63   32   33 1
    64   32   63 1
    65   32   64 1
    66   33   34 1
    67   33   65 1
    68   33   66 1
    69   34   35 1
    70   34   67 1
    71   34   68 1
    72   35   69 1
    73   35   70 1
##########                 Name:              T529803
##########          Protonation:                   15
##########               SMILES:   CC(=O)Nc1ccc(cc1)C[NH+]2CC[C@@H](CC2)N(c3[nH+]ccc(c3)NC(=O)c4ccc(cc4)F)C
##########            Long Name:   yl]piperidin-1-ium-4-yl]-methyl-amino]pyridin-1-ium-4-yl]-4-fluoro-benzamide
##########          FlexRecCode: 1
##########               Number:                   63
##########   Ligand Source File: /raidb/db2/rgc/tcams/tcams-0000610.db2.gz
##########           GlobalRank: 429
##########                 Rank:                    1
##########               Setnum:                  252
##########             Matchnum:                 5097
##########                Cloud:                    1
##########        Electrostatic:           -50.364811
##########        Van der Waals:           -32.666862
##########  Ligand Polar Desolv:            23.778675
########## Ligand Apolar Desolv:            -4.720630
##########      Internal Energy:             0.000000
##########      Receptor Energy: 0.0
########## Receptor Desolvation:             0.000000
########## Receptor Hydrophobic:             0.000000
##########         Total Energy: -63.97
##########        Ligand Charge:             2.000000
##########            Arbitrary:    +999.9990
##########     heavy atom count:   35
##########           pose count:    1
##########        Ligand Energy:             0.000000
# num electro vdwattr vdwrepu polsolv apolsol rdesolv rhydroe totalscore fullpol fullapo
#   1   -1.27   -1.44    0.35    0.38   -0.21    0.00    0.00      -2.19    0.75   -0.41
#   2   14.60   -1.28    0.11  -10.19    0.55    0.00    0.00       3.78  -25.17    1.36
#   3   -2.92   -0.66    0.04    1.71   -0.09    0.00    0.00      -1.93    4.99   -0.26
#   4    3.79   -1.23    0.33   -2.81   -0.08    0.00    0.00      -0.01   -6.73   -0.20
#   5    0.77   -1.21    0.29   -0.51   -0.13    0.00    0.00      -0.78   -1.31   -0.34
#   6    6.13   -0.73    0.08   -4.70    0.08    0.00    0.00       0.86  -16.78    0.27
#   7   -4.85   -0.02    0.00    3.49    0.09    0.00    0.00      -1.28   20.22    0.54
#   8   -1.02   -0.65    0.08    0.87   -0.11    0.00    0.00      -0.83    2.89   -0.36
#   9    1.24   -1.09    0.30   -1.09   -0.09    0.00    0.00      -0.73   -3.96   -0.33
#  10    0.32   -1.53    0.45   -0.79   -0.16    0.00    0.00      -1.70   -2.18   -0.45
#  11    0.23   -1.62    0.59   -1.40   -0.13    0.00    0.00      -2.33   -4.18   -0.40
#  12   -0.35   -0.72    0.08    0.39   -0.16    0.00    0.00      -0.76    1.63   -0.68
#  13    0.84   -0.50    0.05   -2.19    0.31    0.00    0.00      -1.50  -11.77    1.65
#  14   -0.64   -0.55    0.05    1.36   -0.12    0.00    0.00       0.10    6.92   -0.63
#  15    0.15   -0.20    0.01   -0.38   -0.03    0.00    0.00      -0.45   -2.82   -0.21
#  16    0.85   -1.20    0.47   -1.56    0.09    0.00    0.00      -1.35   -6.04    0.34
#  17    0.30   -0.62    0.08   -0.87   -0.09    0.00    0.00      -1.20   -4.43   -0.46
#  18    0.22   -0.84    0.17   -0.39   -0.08    0.00    0.00      -0.92   -1.72   -0.36
#  19    0.16   -0.42    0.03   -0.19   -0.07    0.00    0.00      -0.49   -0.87   -0.34
#  20    3.08   -0.38    0.01   -1.66   -0.05    0.00    0.00       1.01   -7.71   -0.22
#  21  -11.36   -1.49    0.27    7.69   -0.74    0.00    0.00      -5.62   19.92   -1.91
#  22    4.11   -1.11    0.09   -3.08   -0.16    0.00    0.00      -0.15   -8.15   -0.43
#  23   -5.90   -1.39    0.19    3.42   -0.27    0.00    0.00      -3.96    8.55   -0.68
#  24    9.18   -1.41    0.19   -7.53    0.63    0.00    0.00       1.05  -19.65    1.64
#  25   -4.27   -1.33    0.15    5.03   -0.23    0.00    0.00      -0.64   14.16   -0.64
#  26    1.16   -1.87    0.86   -3.85    0.11    0.00    0.00      -3.59  -11.35    0.33
#  27    1.07   -1.47    0.21   -1.33   -0.16    0.00    0.00      -1.69   -3.38   -0.41
#  28    0.45   -1.75    0.51   -0.14   -0.21    0.00    0.00      -1.14   -0.29   -0.44
#  29    1.17   -2.01    0.34   -1.89   -0.27    0.00    0.00      -2.66   -3.25   -0.47
#  30   -1.26   -2.35    0.50    0.37   -0.20    0.00    0.00      -2.95    0.62   -0.34
#  31    0.74   -3.63    4.42   -1.24   -0.31    0.00    0.00      -0.03   -1.93   -0.48
#  32    1.43   -2.32    0.87   -1.47   -0.24    0.00    0.00      -1.73   -2.84   -0.47
#  33    0.05   -1.84    0.39   -0.39   -0.20    0.00    0.00      -1.99   -0.92   -0.46
#  34    4.36   -2.83    1.25   -3.92   -0.20    0.00    0.00      -1.34   -7.99   -0.41
#  35   -5.58   -3.10    1.32    4.30   -0.53    0.00    0.00      -3.58    7.86   -0.97
#  36   17.34   -2.69    1.10  -10.50    0.41    0.00    0.00       5.67  -20.28    0.80
#  37  -16.57   -0.05    0.00   10.06    0.18    0.00    0.00      -6.37   20.45    0.37
#  38   -1.65   -0.65    0.32    2.92   -0.10    0.00    0.00       0.85    6.52   -0.23
#  39   -2.74   -0.66    0.22    1.80   -0.12    0.00    0.00      -1.49    3.65   -0.24
#  40   -2.27   -0.31    0.04    2.23   -0.07    0.00    0.00      -0.38    5.91   -0.18
#  41   -3.98   -0.27    0.02    1.47   -0.07    0.00    0.00      -2.82    5.27   -0.26
#  42   -3.63   -0.29    0.04    1.58   -0.07    0.00    0.00      -2.36    5.38   -0.23
#  43   -3.16   -1.26    2.19    2.23   -0.12    0.00    0.00      -0.11    5.38   -0.28
#  44   -3.17   -0.37    0.06    2.88   -0.05    0.00    0.00      -0.65    8.66   -0.14
#  45   -2.98   -1.01    2.01    2.99   -0.11    0.00    0.00       0.90    7.87   -0.28
#  46   -3.20   -0.19    0.02    1.83   -0.06    0.00    0.00      -1.59    9.20   -0.28
#  47   -3.96   -0.33    0.12    1.95   -0.07    0.00    0.00      -2.29    7.63   -0.27
#  48   -1.61   -0.39    0.11    1.89   -0.10    0.00    0.00      -0.11    5.13   -0.28
#  49   -0.23   -0.90    2.02    0.09   -0.08    0.00    0.00       0.89    0.23   -0.22
#  50   -0.39    0.00    0.00    0.58    0.04    0.00    0.00       0.22    8.98    0.59
#  51   -0.09   -0.07    0.00    0.12   -0.02    0.00    0.00      -0.05    1.73   -0.28
#  52   -0.08   -0.03    0.00    0.03   -0.01    0.00    0.00      -0.09    1.01   -0.28
#  53   -0.06   -0.08    0.01    0.22   -0.02    0.00    0.00       0.06    2.62   -0.28
#  54   -0.24   -0.07    0.00    0.27   -0.02    0.00    0.00      -0.06    3.55   -0.28
#  55   -0.72   -0.13    0.01    1.20   -0.04    0.00    0.00       0.31    8.39   -0.28
#  56   -1.12   -0.07    0.00    0.54   -0.02    0.00    0.00      -0.66    8.15   -0.27
#  57   -2.81   -0.22    0.04    0.94   -0.04    0.00    0.00      -2.09    4.76   -0.19
#  58   -2.00   -0.09    0.00    0.47   -0.02    0.00    0.00      -1.64    5.55   -0.28
#  59   -1.40   -0.12    0.00    0.50   -0.02    0.00    0.00      -1.04    4.73   -0.20
#  60   -1.77   -0.24    0.02    2.39   -0.05    0.00    0.00       0.35    9.64   -0.22
#  61   -6.59   -0.03    0.00    4.22    0.13    0.00    0.00      -2.28   15.48    0.46
#  62   -1.72   -0.33    0.07    2.45   -0.07    0.00    0.00       0.40    7.54   -0.22
#  63   -0.89   -0.53    0.16    1.88   -0.15    0.00    0.00       0.48    3.49   -0.28
#  64   -2.39   -0.97    1.27    0.73   -0.13    0.00    0.00      -1.50    1.58   -0.28
#  65   -0.05   -0.51    0.20    0.71   -0.08    0.00    0.00       0.27    2.36   -0.27
#  66   -4.99   -1.65    4.04    1.54   -0.11    0.00    0.00      -1.16    2.97   -0.21
#  67   -8.28   -0.90    0.32    6.13   -0.18    0.00    0.00      -2.91    9.68   -0.28

@<TRIPOS>MOLECULE
          T529803        15
   67    70     0     0     0



@<TRIPOS>ATOM
      1 C1          2.8088    -5.7804    97.0205 C.3        1           0.0549
      2 N1          3.6470    -5.5411    95.8431 N.pl3      1          -0.6034
      3 C2          3.0319    -5.1404    94.5753 C.3        1           0.1124
      4 C3          1.7448    -4.3593    94.8533 C.3        1          -0.1491
      5 C4          1.0807    -3.9986    93.5229 C.3        1          -0.0362
      6 N2          0.7598    -5.2237    92.7805 N.4        1          -0.3810
      7 H1          0.2843    -4.9811    91.9243 H          1           0.4266
      8 C5         -0.1152    -6.0739    93.5990 C.3        1           0.0497
      9 C6         -0.4463    -7.3326    92.8393 C.ar       1          -0.1941
     10 C7         -0.3924    -8.5580    93.4778 C.ar       1          -0.0647
     11 C8         -0.6952    -9.7134    92.7843 C.ar       1          -0.1231
     12 C9         -1.0547    -9.6435    91.4448 C.ar       1           0.1982
     13 N3         -1.3625   -10.8122    90.7395 N.am       1          -0.6803
     14 C10        -2.6316   -11.2647    90.7063 C.2        1           0.5179
     15 C11        -2.9633   -12.5233    89.9467 C.3        1          -0.1769
     16 O1         -3.5068   -10.6588    91.2877 O.2        1          -0.5180
     17 C12        -1.1082    -8.4112    90.8066 C.ar       1          -0.1490
     18 C13        -0.8089    -7.2590    91.5070 C.ar       1          -0.0741
     19 C14         1.9904    -5.9584    92.4623 C.3        1          -0.0106
     20 C15         2.6859    -6.3867    93.7561 C.3        1          -0.1744
     21 C16         5.0262    -5.6941    95.9289 C.ar       1           0.4552
     22 C17         5.5606    -6.9281    96.2756 C.ar       1          -0.2398
     23 C18         6.9420    -7.0660    96.3569 C.ar       1           0.3200
     24 N4          7.5192    -8.2883    96.7014 N.am       1          -0.6636
     25 C19         6.8964    -9.4408    96.3842 C.2        1           0.5776
     26 O2          5.8318    -9.4151    95.7979 O.2        1          -0.4886
     27 C20         7.5076   -10.7349    96.7489 C.ar       1          -0.1763
     28 C21         8.3647   -10.8202    97.8483 C.ar       1          -0.0506
     29 C22         8.9319   -12.0305    98.1844 C.ar       1          -0.1597
     30 C23         8.6533   -13.1621    97.4331 C.ar       1           0.1551
     31 F1          9.2123   -14.3460    97.7667 F          1          -0.1189
     32 C24         7.8027   -13.0833    96.3409 C.ar       1          -0.1584
     33 C25         7.2258   -11.8790    95.9990 C.ar       1          -0.0135
     34 C26         7.7371    -5.9509    96.0849 C.ar       1          -0.1720
     35 C27         7.1327    -4.7596    95.7475 C.ar       1           0.1675
     36 N5          5.8176    -4.6626    95.6738 N.ar       1          -0.5192
     37 H2          5.4202    -3.8119    95.4302 H          1           0.4383
     38 H3          3.4386    -6.0673    97.8627 H          1           0.0797
     39 H4          2.2626    -4.8704    97.2689 H          1           0.0996
     40 H5          2.1015    -6.5817    96.8062 H          1           0.1091
     41 H6          3.7261    -4.5151    94.0139 H          1           0.1178
     42 H7          1.0660    -4.9738    95.4448 H          1           0.1318
     43 H8          1.9828    -3.4475    95.4011 H          1           0.1225
     44 H9          0.1642    -3.4405    93.7149 H          1           0.1421
     45 H10         1.7612    -3.3850    92.9328 H          1           0.1467
     46 H11         0.3947    -6.3331    94.5269 H          1           0.1337
     47 H12        -1.0346    -5.5351    93.8279 H          1           0.1423
     48 H13        -0.1127    -8.6117    94.5195 H          1           0.1362
     49 H14        -0.6522   -10.6703    93.2833 H          1           0.1512
     50 H15        -0.6626   -11.2967    90.2744 H          1           0.4216
     51 H16        -4.0300   -12.7295    90.0335 H          1           0.1076
     52 H17        -2.7026   -12.3931    88.8964 H          1           0.1056
     53 H18        -2.3970   -13.3574    90.3610 H          1           0.0885
     54 H19        -1.3875    -8.3535    89.7650 H          1           0.1398
     55 H20        -0.8541    -6.3001    91.0122 H          1           0.1303
     56 H21         1.7431    -6.8421    91.8740 H          1           0.1253
     57 H22         2.6576    -5.3159    91.8876 H          1           0.1434
     58 H23         3.5996    -6.9304    93.5161 H          1           0.1250
     59 H24         2.0198    -7.0286    94.3327 H          1           0.1014
     60 H25         4.9130    -7.7681    96.4793 H          1           0.1816
     61 H26         8.3687    -8.3088    97.1691 H          1           0.4312
     62 H27         8.5830    -9.9392    98.4338 H          1           0.1347
     63 H28         9.5948   -12.0976    99.0344 H          1           0.1522
     64 H29         7.5888   -13.9678    95.7594 H          1           0.1549
     65 H30         6.5605   -11.8194    95.1504 H          1           0.1526
     66 H31         8.8134    -6.0211    96.1387 H          1           0.1980
     67 H32         7.7430    -3.8941    95.5360 H          1           0.2156
@<TRIPOS>BOND
     1    1    2 1
     2    1   38 1
     3    1   39 1
     4    1   40 1
     5    2    3 1
     6    2   21 1
     7    3   20 1
     8    3    4 1
     9    3   41 1
    10    4    5 1
    11    4   42 1
    12    4   43 1
    13    5    6 1
    14    5   44 1
    15    5   45 1
    16    6    7 1
    17    6    8 1
    18    6   19 1
    19    8    9 1
    20    8   46 1
    21    8   47 1
    22    9   18 ar
    23    9   10 ar
    24   10   11 ar
    25   10   48 1
    26   11   12 ar
    27   11   49 1
    28   12   13 1
    29   12   17 ar
    30   13   14 am
    31   13   50 1
    32   14   15 1
    33   14   16 2
    34   15   51 1
    35   15   52 1
    36   15   53 1
    37   17   18 ar
    38   17   54 1
    39   18   55 1
    40   19   20 1
    41   19   56 1
    42   19   57 1
    43   20   58 1
    44   20   59 1
    45   21   36 ar
    46   21   22 ar
    47   22   23 ar
    48   22   60 1
    49   23   24 1
    50   23   34 ar
    51   24   25 am
    52   24   61 1
    53   25   26 2
    54   25   27 1
    55   27   33 ar
    56   27   28 ar
    57   28   29 ar
    58   28   62 1
    59   29   30 ar
    60   29   63 1
    61   30   31 1
    62   30   32 ar
    63   32   33 ar
    64   32   64 1
    65   33   65 1
    66   34   35 ar
    67   34   66 1
    68   35   36 ar
    69   35   67 1
    70   36   37 1
##########                 Name:              T525186
##########          Protonation:                   34
##########               SMILES:   c1cc(cc(c1)C(=O)Nc2ccc(cc2)Cl)C[NH+]3CCCN(CC3)Cc4cccc(c4)O
##########            Long Name:   yl)-3-[[4-[(3-hydroxyphenyl)methyl]-1,4-diazepan-1-ium-1-yl]methyl]benzamide
##########          FlexRecCode: 1
##########               Number:                  309
##########   Ligand Source File: /raidb/db2/rgc/tcams/tcams-0000017.db2.gz
##########           GlobalRank: 431
##########                 Rank:                    1
##########               Setnum:                  363
##########             Matchnum:                 4277
##########                Cloud:                    1
##########        Electrostatic:           -45.422047
##########        Van der Waals:           -24.479057
##########  Ligand Polar Desolv:             7.945624
########## Ligand Apolar Desolv:            -1.991438
##########      Internal Energy:             0.000000
##########      Receptor Energy: 0.0
########## Receptor Desolvation:             0.000000
########## Receptor Hydrophobic:             0.000000
##########         Total Energy: -63.95
##########        Ligand Charge:             1.000000
##########            Arbitrary:    +999.9990
##########     heavy atom count:   32
##########           pose count:    1
##########        Ligand Energy:             0.000000
# num electro vdwattr vdwrepu polsolv apolsol rdesolv rhydroe totalscore fullpol fullapo
#   1    2.24   -2.29    0.65   -1.87    0.64    0.00    0.00      -0.62   -3.46    1.19
#   2   -0.56   -2.52    1.31    0.17   -0.15    0.00    0.00      -1.75    0.36   -0.31
#   3    0.28   -3.31    2.12   -0.69   -0.15    0.00    0.00      -1.75   -1.65   -0.37
#   4    0.63   -1.94    0.52   -0.29   -0.14    0.00    0.00      -1.23   -0.70   -0.35
#   5   -0.92   -1.05    0.16    0.75   -0.15    0.00    0.00      -1.21    1.86   -0.37
#   6    9.82   -1.14    0.10   -4.57    1.19    0.00    0.00       5.41  -11.68    3.05
#   7   -0.57   -1.22    0.40    0.25   -0.16    0.00    0.00      -1.30    0.58   -0.37
#   8    4.75   -1.45    0.37   -1.46   -0.12    0.00    0.00       2.09   -2.92   -0.24
#   9    1.17   -1.56    1.15   -0.08   -0.16    0.00    0.00       0.53   -0.19   -0.38
#  10   15.14   -2.20    3.78   -3.15    0.07    0.00    0.00      13.65  -11.14    0.24
#  11  -24.65   -0.18    0.10    4.15    0.14    0.00    0.00     -20.44   14.12    0.48
#  12   -1.26   -0.99    0.40    0.43   -0.09    0.00    0.00      -1.50    1.64   -0.34
#  13    3.54   -0.64    0.08   -0.59   -0.06    0.00    0.00       2.32   -3.14   -0.34
#  14    1.02   -0.88    0.18   -0.22   -0.08    0.00    0.00       0.03   -0.98   -0.35
#  15    1.88   -0.34    0.01   -0.40   -0.06    0.00    0.00       1.09   -2.88   -0.41
#  16    0.43   -0.16    0.00   -0.09   -0.03    0.00    0.00       0.16   -1.45   -0.44
#  17    0.65   -0.16    0.00   -0.21   -0.03    0.00    0.00       0.25   -3.03   -0.47
#  18    0.65   -0.27    0.01   -0.11   -0.05    0.00    0.00       0.22   -1.01   -0.46
#  19   -7.51   -0.39    0.02    0.95   -0.10    0.00    0.00      -7.03    5.90   -0.64
#  20    3.93   -0.20    0.00   -0.39    0.03    0.00    0.00       3.38   -4.18    0.33
#  21   12.34   -0.81    0.09   -1.71    0.38    0.00    0.00      10.29   -7.32    1.64
#  22   -1.73   -0.72    0.06    0.28   -0.17    0.00    0.00      -2.28    1.14   -0.68
#  23    2.08   -1.12    0.12   -0.38   -0.16    0.00    0.00       0.54   -1.08   -0.46
#  24    1.06   -1.19    0.15   -0.24   -0.16    0.00    0.00      -0.38   -0.68   -0.46
#  25    0.13   -0.68    0.05   -0.11   -0.08    0.00    0.00      -0.69   -0.40   -0.30
#  26   -0.01   -1.47    0.30   -0.08   -0.22    0.00    0.00      -1.48   -0.35   -0.99
#  27    0.19   -0.46    0.02   -0.11   -0.09    0.00    0.00      -0.44   -0.53   -0.46
#  28    0.63   -0.53    0.05   -0.15   -0.08    0.00    0.00      -0.08   -0.75   -0.40
#  29   -0.09   -0.48    0.04    0.18   -0.10    0.00    0.00      -0.46    0.73   -0.40
#  30   -0.57   -0.69    0.08    0.08   -0.12    0.00    0.00      -1.21    0.26   -0.38
#  31    1.53   -1.67    0.23   -0.73   -0.23    0.00    0.00      -0.87   -1.45   -0.46
#  32    1.41   -1.78    0.32   -0.66   -0.24    0.00    0.00      -0.95   -1.31   -0.47
#  33    1.29   -1.85    0.60   -0.80   -0.24    0.00    0.00      -1.00   -1.57   -0.46
#  34   -3.10   -0.03    0.00    2.28    0.61    0.00    0.00      -0.25    4.56    1.22
#  35    0.83   -1.22    1.36    0.61   -0.11    0.00    0.00       1.46    1.41   -0.26
#  36   -0.25   -0.44    0.26    0.67   -0.07    0.00    0.00       0.16    2.48   -0.27
#  37   -0.61   -0.46    0.13    0.21   -0.11    0.00    0.00      -0.84    0.56   -0.28
#  38   -1.23   -0.21    0.01    0.18   -0.05    0.00    0.00      -1.30    0.88   -0.26
#  39   -2.32   -1.26    2.85    0.26   -0.07    0.00    0.00      -0.54    0.66   -0.17
#  40   -4.03   -0.80    0.45    0.80   -0.14    0.00    0.00      -3.73    1.55   -0.28
#  41   -3.64   -0.49    0.17    1.06   -0.12    0.00    0.00      -3.02    2.32   -0.26
#  42   -3.96   -0.19    0.01    0.84   -0.05    0.00    0.00      -3.36    4.11   -0.23
#  43   -7.51   -1.14    1.98    1.42   -0.06    0.00    0.00      -5.31    3.16   -0.14
#  44   -3.08   -0.12    0.01    0.97   -0.04    0.00    0.00      -2.26    7.20   -0.28
#  45   -6.22   -0.79    0.79    1.71   -0.09    0.00    0.00      -4.60    5.30   -0.28
#  46   -5.54   -0.50    0.38    0.76   -0.06    0.00    0.00      -4.95    2.91   -0.23
#  47   -0.69   -0.02    0.00    0.06   -0.01    0.00    0.00      -0.65    2.46   -0.22
#  48   -0.24   -0.02    0.00    0.08   -0.01    0.00    0.00      -0.18    3.09   -0.28
#  49   -1.00   -0.04    0.00    0.25   -0.01    0.00    0.00      -0.80    5.84   -0.28
#  50  -11.17   -0.02    0.00    1.57    0.11    0.00    0.00      -9.51    6.52    0.46
#  51   -3.45   -0.35    0.07    0.80   -0.09    0.00    0.00      -3.02    2.39   -0.28
#  52   -2.76   -0.47    0.21    0.43   -0.10    0.00    0.00      -2.69    1.23   -0.28
#  53    0.01   -0.07    0.00    0.05   -0.02    0.00    0.00      -0.03    0.68   -0.28
#  54   -0.80   -0.10    0.01    0.07   -0.02    0.00    0.00      -0.84    0.69   -0.22
#  55   -1.91   -0.12    0.01    0.62   -0.03    0.00    0.00      -1.43    5.93   -0.27
#  56   -2.11   -0.10    0.00    0.60   -0.03    0.00    0.00      -1.64    5.97   -0.28
#  57   -3.13   -0.44    0.22    0.83   -0.07    0.00    0.00      -2.60    2.84   -0.25
#  58   -0.93   -0.19    0.02    0.27   -0.04    0.00    0.00      -0.87    1.57   -0.21
#  59   -2.15   -0.34    0.03    1.31   -0.12    0.00    0.00      -1.26    3.10   -0.28
#  60   -2.24   -0.39    0.05    0.79   -0.13    0.00    0.00      -1.92    1.74   -0.28
#  61   -1.12   -0.34    0.04    0.28   -0.12    0.00    0.00      -1.25    0.65   -0.28

@<TRIPOS>MOLECULE
          T525186        34
   61    64     0     0     0



@<TRIPOS>ATOM
      1 O1          7.2435   -12.6562    97.2556 O.3        1          -0.4966
      2 C1          7.4132   -11.3258    97.4751 C.ar       1           0.1107
      3 C2          6.4312   -10.4263    97.0854 C.ar       1          -0.1435
      4 C3          6.6059    -9.0748    97.3100 C.ar       1          -0.0755
      5 C4          5.5395    -8.0974    96.8875 C.3        1           0.0983
      6 N1          6.1650    -6.9498    96.2168 N.3        1          -0.5404
      7 C5          5.2800    -5.7456    96.2782 C.3        1           0.0238
      8 C6          5.6305    -4.6923    95.2710 C.3        1          -0.1323
      9 C7          4.8395    -4.7829    93.9520 C.3        1          -0.0280
     10 N2          5.3724    -5.7777    93.1134 N.4        1          -0.3721
     11 H1          6.3086    -5.5123    92.8466 H          1           0.4259
     12 C8          4.5439    -5.8729    91.9040 C.3        1           0.0384
     13 C9          5.1032    -6.9363    90.9943 C.ar       1          -0.1613
     14 C10         6.4620    -6.9989    90.7628 C.ar       1          -0.0401
     15 C11         6.9783    -7.9846    89.9203 C.ar       1          -0.1254
     16 C12         6.1151    -8.9013    89.3174 C.ar       1          -0.0549
     17 C13         4.7588    -8.8275    89.5575 C.ar       1          -0.1133
     18 C14         4.2538    -7.8508    90.3979 C.ar       1          -0.0643
     19 C15         8.4329    -8.0575    89.6674 C.2        1           0.5567
     20 O2          8.9467    -9.1199    89.3756 O.2        1          -0.5095
     21 N3          9.1895    -6.9460    89.7602 N.am       1          -0.6629
     22 C16        10.5661    -7.0149    89.5209 C.ar       1           0.1361
     23 C17        11.2394    -5.9126    89.0105 C.ar       1          -0.1264
     24 C18        12.5984    -5.9834    88.7749 C.ar       1          -0.0895
     25 C19        13.2893    -7.1513    89.0471 C.ar       1          -0.0427
     26 Cl1        14.9975    -7.2368    88.7500 Cl         1          -0.0588
     27 C20        12.6207    -8.2508    89.5562 C.ar       1          -0.0917
     28 C21        11.2628    -8.1838    89.7985 C.ar       1          -0.1058
     29 C22         5.4194    -7.1138    93.7703 C.3        1           0.0042
     30 C23         6.4987    -7.2755    94.7988 C.3        1           0.0276
     31 C24         7.7584    -8.6177    97.9227 C.ar       1          -0.1079
     32 C25         8.7385    -9.5118    98.3114 C.ar       1          -0.0996
     33 C26         8.5660   -10.8653    98.0942 C.ar       1          -0.1381
     34 H2          7.9786   -13.2028    97.5650 H          1           0.3933
     35 H3          5.5311   -10.7827    96.6065 H          1           0.1264
     36 H4          4.8490    -8.5873    96.2008 H          1           0.0959
     37 H5          4.9944    -7.7521    97.7660 H          1           0.0583
     38 H6          4.2503    -6.0606    96.1094 H          1           0.0576
     39 H7          5.3505    -5.3115    97.2756 H          1           0.1029
     40 H8          5.4476    -3.7144    95.7164 H          1           0.1120
     41 H9          6.6932    -4.7734    95.0424 H          1           0.0899
     42 H10         3.7993    -5.0209    94.1739 H          1           0.1282
     43 H11         4.8846    -3.8214    93.4406 H          1           0.1350
     44 H12         3.5228    -6.1335    92.1827 H          1           0.1408
     45 H13         4.5456    -4.9139    91.3860 H          1           0.1380
     46 H14         7.1244    -6.2867    91.2319 H          1           0.1476
     47 H15         6.5082    -9.6662    88.6643 H          1           0.1388
     48 H16         4.0899    -9.5359    89.0917 H          1           0.1463
     49 H17         3.1915    -7.8000    90.5858 H          1           0.1400
     50 H18         8.7795    -6.0983    89.9930 H          1           0.4129
     51 H19        10.7008    -5.0013    88.7974 H          1           0.1373
     52 H20        13.1225    -5.1268    88.3777 H          1           0.1422
     53 H21        13.1623    -9.1610    89.7682 H          1           0.1401
     54 H22        10.7424    -9.0409    90.1996 H          1           0.1466
     55 H23         4.4579    -7.2940    94.2507 H          1           0.1300
     56 H24         5.5642    -7.8704    92.9992 H          1           0.1309
     57 H25         7.3383    -6.6472    94.5018 H          1           0.1119
     58 H26         6.8370    -8.3113    94.7662 H          1           0.0673
     59 H27         7.8930    -7.5604    98.0974 H          1           0.1257
     60 H28         9.6377    -9.1523    98.7895 H          1           0.1310
     61 H29         9.3299   -11.5638    98.4021 H          1           0.1324
@<TRIPOS>BOND
     1    1    2 1
     2    1   34 1
     3    2   33 ar
     4    2    3 ar
     5    3    4 ar
     6    3   35 1
     7    4    5 1
     8    4   31 ar
     9    5    6 1
    10    5   36 1
    11    5   37 1
    12    6   30 1
    13    6    7 1
    14    7    8 1
    15    7   38 1
    16    7   39 1
    17    8    9 1
    18    8   40 1
    19    8   41 1
    20    9   10 1
    21    9   42 1
    22    9   43 1
    23   10   11 1
    24   10   12 1
    25   10   29 1
    26   12   13 1
    27   12   44 1
    28   12   45 1
    29   13   18 ar
    30   13   14 ar
    31   14   15 ar
    32   14   46 1
    33   15   16 ar
    34   15   19 1
    35   16   17 ar
    36   16   47 1
    37   17   18 ar
    38   17   48 1
    39   18   49 1
    40   19   20 2
    41   19   21 am
    42   21   22 1
    43   21   50 1
    44   22   28 ar
    45   22   23 ar
    46   23   24 ar
    47   23   51 1
    48   24   25 ar
    49   24   52 1
    50   25   26 1
    51   25   27 ar
    52   27   28 ar
    53   27   53 1
    54   28   54 1
    55   29   30 1
    56   29   55 1
    57   29   56 1
    58   30   57 1
    59   30   58 1
    60   31   32 ar
    61   31   59 1
    62   32   33 ar
    63   32   60 1
    64   33   61 1
##########                 Name:              T525701
##########          Protonation:                   90
##########               SMILES:   c1cc(c(cc1/C=C\C(=O)NCCCC[NH+]2CCCN(CC2)C(=O)Nc3ccc(c(c3)Cl)Cl)Cl)Cl
##########            Long Name:   ,4-dichlorophenyl)prop-2-enoyl]amino]butyl]-1,4-diazepan-4-ium-1-carboxamide
##########          FlexRecCode: 1
##########               Number:                  128
##########   Ligand Source File: /raidb/db2/rgc/tcams/tcams-0000112.db2.gz
##########           GlobalRank: 431
##########                 Rank:                    1
##########               Setnum:                  115
##########             Matchnum:                 2140
##########                Cloud:                    1
##########        Electrostatic:           -39.132385
##########        Van der Waals:           -30.312410
##########  Ligand Polar Desolv:             8.825902
########## Ligand Apolar Desolv:            -3.333691
##########      Internal Energy:             0.000000
##########      Receptor Energy: 0.0
########## Receptor Desolvation:             0.000000
########## Receptor Hydrophobic:             0.000000
##########         Total Energy: -63.95
##########        Ligand Charge:             1.000000
##########            Arbitrary:    +999.9990
##########     heavy atom count:   35
##########           pose count:    1
##########        Ligand Energy:             0.000000
# num electro vdwattr vdwrepu polsolv apolsol rdesolv rhydroe totalscore fullpol fullapo
#   1    0.33   -3.50    0.90   -0.22   -0.53    0.00    0.00      -3.03   -0.40   -0.95
#   2    0.47   -1.63    0.35   -0.27   -0.14    0.00    0.00      -1.21   -0.58   -0.30
#   3    1.24   -2.03    0.39   -0.45   -0.25    0.00    0.00      -1.10   -0.81   -0.46
#   4    2.10   -1.99    0.27   -0.78   -0.25    0.00    0.00      -0.66   -1.42   -0.46
#   5   -2.07   -1.58    0.20    1.10   -0.31    0.00    0.00      -2.66    2.38   -0.67
#   6   10.28   -1.74    0.35   -5.07    0.75    0.00    0.00       4.58  -11.23    1.67
#   7   -9.83   -1.26    0.12    4.31   -0.77    0.00    0.00      -7.43   11.35   -2.03
#   8    2.79   -2.18    0.85   -2.83    0.13    0.00    0.00      -1.24   -6.94    0.32
#   9   13.78   -0.90    0.04   -4.41    0.46    0.00    0.00       8.97  -13.76    1.44
#  10   -2.07   -0.52    0.02    0.64   -0.14    0.00    0.00      -2.08    2.07   -0.46
#  11    3.60   -0.46    0.02   -1.09   -0.06    0.00    0.00       2.02   -4.42   -0.24
#  12    0.19   -0.36    0.02   -0.05   -0.07    0.00    0.00      -0.27   -0.26   -0.36
#  13   11.81   -1.14    0.68   -2.81    0.04    0.00    0.00       8.57  -11.44    0.18
#  14  -20.36   -0.07    0.01    4.10    0.11    0.00    0.00     -16.20   16.34    0.44
#  15    0.45   -0.52    0.09    0.03   -0.07    0.00    0.00      -0.02    0.15   -0.35
#  16    3.36   -0.51    0.07   -0.88   -0.04    0.00    0.00       2.00   -4.18   -0.20
#  17    1.80   -0.22    0.01   -0.37   -0.03    0.00    0.00       1.20   -2.86   -0.22
#  18   -0.91   -0.27    0.01    0.29   -0.07    0.00    0.00      -0.94    1.87   -0.42
#  19    3.23   -0.42    0.04   -1.51    0.32    0.00    0.00       1.65  -10.97    2.33
#  20   -1.27   -0.29    0.02    0.57   -0.06    0.00    0.00      -1.02    5.53   -0.58
#  21    0.93   -0.12    0.00   -0.23    0.02    0.00    0.00       0.61   -3.66    0.29
#  22    0.46   -0.61    0.23   -0.31   -0.06    0.00    0.00      -0.30   -2.44   -0.45
#  23    0.02   -0.57    0.22   -0.08   -0.05    0.00    0.00      -0.47   -0.62   -0.44
#  24    0.11   -0.20    0.01   -0.03   -0.03    0.00    0.00      -0.14   -0.36   -0.31
#  25    0.05   -0.24    0.01   -0.02   -0.03    0.00    0.00      -0.22   -0.17   -0.29
#  26    0.10   -0.16    0.00   -0.02   -0.02    0.00    0.00      -0.09   -0.25   -0.30
#  27    0.09   -0.43    0.01   -0.02   -0.07    0.00    0.00      -0.42   -0.25   -0.95
#  28    0.08   -0.16    0.00   -0.02   -0.02    0.00    0.00      -0.11   -0.24   -0.29
#  29    0.21   -1.06    0.35   -0.03   -0.13    0.00    0.00      -0.65   -0.20   -0.95
#  30    0.36   -0.10    0.00   -0.03   -0.02    0.00    0.00       0.21   -0.62   -0.46
#  31    0.18   -0.09    0.00   -0.03   -0.02    0.00    0.00       0.05   -0.67   -0.45
#  32    1.48   -0.98    0.37   -0.10   -0.12    0.00    0.00       0.65   -0.35   -0.39
#  33   -3.68   -0.91    0.17    0.92   -0.17    0.00    0.00      -3.68    2.25   -0.42
#  34    0.72   -1.67    0.30   -0.38   -0.15    0.00    0.00      -1.18   -1.03   -0.39
#  35    0.09   -1.57    0.28   -0.12   -0.12    0.00    0.00      -1.44   -0.30   -0.30
#  36    0.14   -3.25    0.78   -0.16   -0.40    0.00    0.00      -2.89   -0.38   -0.95
#  37   -3.13   -0.50    0.10    0.97   -0.14    0.00    0.00      -2.70    1.92   -0.28
#  38   -2.57   -0.57    0.15    2.04   -0.15    0.00    0.00      -1.10    3.71   -0.28
#  39   -6.84   -0.06    0.01    3.88    0.17    0.00    0.00      -2.85    9.59    0.41
#  40   -1.55   -0.14    0.00    0.35   -0.03    0.00    0.00      -1.37    2.52   -0.20
#  41   -2.49   -0.23    0.01    0.45   -0.06    0.00    0.00      -2.32    2.02   -0.28
#  42   -2.24   -0.10    0.00    0.39   -0.03    0.00    0.00      -1.98    4.13   -0.28
#  43   -3.11   -0.26    0.03    1.04   -0.06    0.00    0.00      -2.35    4.38   -0.25
#  44   -1.23   -0.13    0.01    0.36   -0.03    0.00    0.00      -1.02    3.24   -0.24
#  45   -1.87   -0.07    0.00    0.37   -0.01    0.00    0.00      -1.58    5.85   -0.23
#  46   -3.67   -0.21    0.04    1.09   -0.05    0.00    0.00      -2.81    5.36   -0.26
#  47   -1.86   -0.07    0.00    0.29   -0.02    0.00    0.00      -1.65    4.66   -0.27
#  48   -1.49   -0.09    0.00    0.29   -0.02    0.00    0.00      -1.30    3.24   -0.23
#  49   -3.43   -0.47    0.24    0.76   -0.07    0.00    0.00      -2.96    3.13   -0.28
#  50   -1.36   -0.07    0.00    0.15   -0.02    0.00    0.00      -1.30    2.30   -0.28
#  51   -0.72   -0.03    0.00    0.08   -0.01    0.00    0.00      -0.68    2.35   -0.28
#  52   -0.24   -0.06    0.00    0.04   -0.02    0.00    0.00      -0.28    0.61   -0.28
#  53   -0.69   -0.16    0.02    0.08   -0.04    0.00    0.00      -0.80    0.53   -0.28
#  54   -2.50   -0.01    0.00    0.97    0.07    0.00    0.00      -1.48    8.17    0.56
#  55   -0.27   -0.12    0.02    0.35   -0.03    0.00    0.00      -0.04    3.46   -0.28
#  56   -0.27   -0.12    0.03    0.27   -0.03    0.00    0.00      -0.12    2.76   -0.28
#  57   -0.30   -0.09    0.01    0.08   -0.02    0.00    0.00      -0.33    0.84   -0.25
#  58   -0.50   -0.02    0.00    0.03   -0.01    0.00    0.00      -0.50    1.05   -0.28
#  59   -0.20   -0.01    0.00    0.04   -0.01    0.00    0.00      -0.18    1.96   -0.28
#  60   -2.56   -0.16    0.01    0.43   -0.04    0.00    0.00      -2.32    2.81   -0.28
#  61   -5.67   -0.67    0.60    1.99   -0.08    0.00    0.00      -3.84    6.15   -0.26
#  62   -4.45   -0.47    0.27    1.69   -0.10    0.00    0.00      -3.06    4.71   -0.28
#  63   -3.89   -0.31    0.04    0.41   -0.09    0.00    0.00      -3.83    1.10   -0.24
#  64   -0.31   -0.41    0.18    0.30   -0.06    0.00    0.00      -0.30    1.11   -0.21

@<TRIPOS>MOLECULE
          T525701        90
   64    66     0     0     0



@<TRIPOS>ATOM
      1 Cl1         9.5582   -11.4131    98.0815 Cl         1          -0.0358
      2 C1          8.4230   -10.1166    97.8707 C.ar       1          -0.0430
      3 C2          8.5566    -8.9544    98.6097 C.ar       1          -0.0745
      4 C3          7.6547    -7.9217    98.4444 C.ar       1          -0.1264
      5 C4          6.6129    -8.0495    97.5350 C.ar       1           0.1635
      6 N1          5.6979    -7.0034    97.3655 N.am       1          -0.6764
      7 C5          4.6873    -7.1285    96.4827 C.2        1           0.7017
      8 O1          3.8735    -8.0226    96.6126 O.2        1          -0.5482
      9 N2          4.5785    -6.2624    95.4558 N.am       1          -0.6356
     10 C6          3.2351    -5.9486    94.9284 C.3        1           0.0947
     11 C7          3.2447    -5.8870    93.3902 C.3        1          -0.1578
     12 C8          4.1245    -6.9915    92.8477 C.3        1          -0.0103
     13 N3          5.4745    -6.4735    92.6375 N.4        1          -0.3667
     14 H1          5.4047    -5.5056    92.3612 H          1           0.4180
     15 C9          6.0927    -7.2242    91.5364 C.3        1          -0.0187
     16 C10         5.5906    -6.6748    90.1997 C.3        1          -0.1450
     17 C11         6.2345    -7.4567    89.0528 C.3        1          -0.1303
     18 C12         5.7323    -6.9074    87.7160 C.3        1           0.1201
     19 N4          6.3489    -7.6559    86.6180 N.am       1          -0.7320
     20 C13         5.7466    -8.7600    86.1333 C.2        1           0.5402
     21 O2          4.6906    -9.1351    86.6080 O.2        1          -0.5197
     22 C14         6.3627    -9.5080    85.0362 C.2        1          -0.2180
     23 C15         7.5922   -10.0402    85.1899 C.2        1          -0.0091
     24 C16         8.2223   -10.0648    86.5195 C.ar       1          -0.0615
     25 C17         9.4395    -9.4091    86.7322 C.ar       1          -0.0246
     26 C18        10.0241    -9.4360    87.9811 C.ar       1          -0.0390
     27 Cl2        11.5343    -8.6227    88.2484 Cl         1          -0.0530
     28 C19         9.4076   -10.1112    89.0240 C.ar       1          -0.0199
     29 Cl3        10.1499   -10.1403    90.5929 Cl         1          -0.0467
     30 C20         8.2023   -10.7618    88.8195 C.ar       1          -0.1069
     31 C21         7.6043   -10.7390    87.5774 C.ar       1          -0.0804
     32 C22         6.3257    -6.5559    93.7618 C.3        1          -0.0470
     33 C23         5.7827    -5.6682    94.9130 C.3        1           0.1142
     34 C24         6.4805    -9.2157    96.7937 C.ar       1          -0.1049
     35 C25         7.3887   -10.2448    96.9589 C.ar       1          -0.0131
     36 Cl4         7.2284   -11.7011    96.0276 Cl         1          -0.0341
     37 H2          9.3667    -8.8551    99.3170 H          1           0.1524
     38 H3          7.7593    -7.0152    99.0222 H          1           0.1430
     39 H4          5.7914    -6.1886    97.8836 H          1           0.4108
     40 H5          2.5351    -6.7192    95.2512 H          1           0.0925
     41 H6          2.9120    -4.9851    95.3229 H          1           0.0954
     42 H7          2.2292    -6.0139    93.0151 H          1           0.1288
     43 H8          3.6334    -4.9212    93.0675 H          1           0.0953
     44 H9          4.1575    -7.8143    93.5619 H          1           0.1289
     45 H10         3.7195    -7.3471    91.9003 H          1           0.1388
     46 H11         7.1763    -7.1191    91.5885 H          1           0.1350
     47 H12         5.8254    -8.2777    91.6197 H          1           0.1319
     48 H13         4.5069    -6.7800    90.1476 H          1           0.0905
     49 H14         5.8579    -5.6215    90.1163 H          1           0.0933
     50 H15         7.3182    -7.3515    89.1048 H          1           0.0832
     51 H16         5.9673    -8.5101    89.1362 H          1           0.0819
     52 H17         4.6487    -7.0126    87.6640 H          1           0.0706
     53 H18         5.9996    -5.8540    87.6327 H          1           0.0718
     54 H19         7.1906    -7.3570    86.2396 H          1           0.4027
     55 H20         5.8326    -9.6336    84.1037 H          1           0.1394
     56 H21         8.1143   -10.4485    84.3371 H          1           0.1478
     57 H22         9.9204    -8.8834    85.9205 H          1           0.1300
     58 H23         7.7275   -11.2854    89.6362 H          1           0.1447
     59 H24         6.6623   -11.2435    87.4209 H          1           0.1403
     60 H25         6.3804    -7.5912    94.0982 H          1           0.1318
     61 H26         7.3235    -6.2155    93.4850 H          1           0.1470
     62 H27         5.5546    -4.6741    94.5283 H          1           0.1034
     63 H28         6.5333    -5.5878    95.6993 H          1           0.1345
     64 H29         5.6711    -9.3173    96.0859 H          1           0.1605
@<TRIPOS>BOND
     1    1    2 1
     2    2   35 ar
     3    2    3 ar
     4    3    4 ar
     5    3   37 1
     6    4    5 ar
     7    4   38 1
     8    5    6 1
     9    5   34 ar
    10    6    7 am
    11    6   39 1
    12    7    8 2
    13    7    9 am
    14    9   33 1
    15    9   10 1
    16   10   11 1
    17   10   40 1
    18   10   41 1
    19   11   12 1
    20   11   42 1
    21   11   43 1
    22   12   13 1
    23   12   44 1
    24   12   45 1
    25   13   14 1
    26   13   15 1
    27   13   32 1
    28   15   16 1
    29   15   46 1
    30   15   47 1
    31   16   17 1
    32   16   48 1
    33   16   49 1
    34   17   18 1
    35   17   50 1
    36   17   51 1
    37   18   19 1
    38   18   52 1
    39   18   53 1
    40   19   20 am
    41   19   54 1
    42   20   21 2
    43   20   22 1
    44   22   23 2
    45   22   55 1
    46   23   24 1
    47   23   56 1
    48   24   31 ar
    49   24   25 ar
    50   25   26 ar
    51   25   57 1
    52   26   27 1
    53   26   28 ar
    54   28   29 1
    55   28   30 ar
    56   30   31 ar
    57   30   58 1
    58   31   59 1
    59   32   33 1
    60   32   60 1
    61   32   61 1
    62   33   62 1
    63   33   63 1
    64   34   35 ar
    65   34   64 1
    66   35   36 1
##########                 Name:              T541197
##########          Protonation:                   61
##########               SMILES:   c1cc(ccc1/C=C/C(=O)NCCCCC[NH+]2CCN(CC2)C(=O)Nc3ccc(c(c3)C(F)(F)F)Cl)C#N
##########            Long Name:   (E)-3-(4-cyanophenyl)prop-2-enoyl]amino]pentyl]piperazin-4-ium-1-carboxamide
##########          FlexRecCode: 1
##########               Number:                  150
##########   Ligand Source File: /raidb/db2/rgc/tcams/tcams-0002060.db2.gz
##########           GlobalRank: 432
##########                 Rank:                    1
##########               Setnum:                   13
##########             Matchnum:                  693
##########                Cloud:                    1
##########        Electrostatic:           -40.967175
##########        Van der Waals:           -27.523085
##########  Ligand Polar Desolv:             8.557528
########## Ligand Apolar Desolv:            -4.009871
##########      Internal Energy:             0.000000
##########      Receptor Energy: 0.0
########## Receptor Desolvation:             0.000000
########## Receptor Hydrophobic:             0.000000
##########         Total Energy: -63.94
##########        Ligand Charge:             1.000000
##########            Arbitrary:    +999.9990
##########     heavy atom count:   38
##########           pose count:    1
##########        Ligand Energy:             0.000000
# num electro vdwattr vdwrepu polsolv apolsol rdesolv rhydroe totalscore fullpol fullapo
#   1    1.67   -1.00    0.12   -0.63   -0.24    0.00    0.00      -0.07   -1.17   -0.44
#   2   -2.69   -1.09    0.17    1.15   -0.03    0.00    0.00      -2.49    2.58   -0.06
#   3    1.23   -0.54    0.03   -0.21   -0.16    0.00    0.00       0.35   -0.59   -0.46
#   4   -0.58   -3.22    3.21   -0.30   -0.22    0.00    0.00      -1.12   -0.62   -0.46
#   5    1.06   -1.48    0.23   -0.55   -0.15    0.00    0.00      -0.89   -1.32   -0.37
#   6    0.73   -1.37    0.16   -0.35   -0.16    0.00    0.00      -0.99   -0.96   -0.44
#   7   -2.05   -1.49    0.16    1.20   -0.32    0.00    0.00      -2.50    2.58   -0.69
#   8   10.89   -1.53    0.23   -5.55    0.76    0.00    0.00       4.80  -12.18    1.67
#   9  -11.04   -1.21    0.11    4.94   -0.81    0.00    0.00      -8.01   12.60   -2.06
#  10    5.57   -1.65    0.26   -3.34    0.13    0.00    0.00       0.98   -7.80    0.31
#  11   14.10   -0.91    0.04   -5.24    0.68    0.00    0.00       8.67  -15.66    2.03
#  12   -1.75   -0.48    0.02    0.49   -0.12    0.00    0.00      -1.84    1.90   -0.48
#  13    0.42   -0.40    0.02    0.00   -0.08    0.00    0.00      -0.04    0.00   -0.40
#  14   13.88   -1.64    1.82   -3.38    0.07    0.00    0.00      10.76  -13.10    0.27
#  15  -21.99   -0.09    0.02    4.77    0.14    0.00    0.00     -17.15   17.90    0.54
#  16    0.32   -0.75    0.25    0.09   -0.08    0.00    0.00      -0.17    0.40   -0.35
#  17    3.78   -0.81    0.17   -1.24   -0.06    0.00    0.00       1.85   -4.59   -0.21
#  18    1.21   -0.44    0.03   -0.67   -0.05    0.00    0.00       0.08   -3.06   -0.22
#  19    0.85   -0.14    0.00   -0.22   -0.02    0.00    0.00       0.47   -2.51   -0.22
#  20   -0.42   -0.11    0.00    0.11   -0.03    0.00    0.00      -0.46    1.47   -0.43
#  21    0.51   -0.14    0.00   -0.63    0.15    0.00    0.00      -0.10   -9.56    2.33
#  22   -0.15   -0.41    0.09    0.51   -0.07    0.00    0.00      -0.03    4.56   -0.65
#  23   -0.02   -0.82    0.34   -0.29    0.06    0.00    0.00      -0.73   -1.82    0.39
#  24    0.03   -0.56    0.20   -0.28   -0.06    0.00    0.00      -0.66   -2.12   -0.43
#  25    0.00   -1.42    1.79   -0.08   -0.07    0.00    0.00       0.21   -0.46   -0.44
#  26    0.00   -0.70    0.17   -0.07   -0.08    0.00    0.00      -0.68   -0.39   -0.41
#  27    0.02   -0.42    0.03   -0.18   -0.07    0.00    0.00      -0.62   -1.13   -0.44
#  28    0.02   -0.38    0.02   -0.10   -0.07    0.00    0.00      -0.52   -0.63   -0.45
#  29    0.00   -0.51    0.04   -0.08   -0.08    0.00    0.00      -0.63   -0.44   -0.40
#  30    0.06   -0.73    0.09   -0.14   -0.11    0.00    0.00      -0.83   -0.57   -0.45
#  31    0.12   -0.76    0.10   -0.21   -0.10    0.00    0.00      -0.86   -0.98   -0.45
#  32   -0.10   -0.98    0.52    0.17   -0.30    0.00    0.00      -0.69    0.81   -1.46
#  33    0.15   -1.84    2.23    0.14    0.16    0.00    0.00       0.85    0.66    0.71
#  34    0.96   -1.56    1.30    0.04   -0.12    0.00    0.00       0.62    0.13   -0.38
#  35   -3.55   -1.22    0.37    1.03   -0.20    0.00    0.00      -3.57    2.49   -0.48
#  36    1.55   -2.06    0.36   -0.58   -0.23    0.00    0.00      -0.96   -1.04   -0.42
#  37    1.29   -2.35    0.87   -0.41   -0.25    0.00    0.00      -0.84   -0.76   -0.46
#  38    0.05   -1.85    0.58   -0.19   -0.15    0.00    0.00      -1.56   -0.37   -0.30
#  39    0.17   -5.07    1.76   -0.24   -0.55    0.00    0.00      -3.93   -0.40   -0.91
#  40   -0.87   -0.23    0.02    0.73   -0.06    0.00    0.00      -0.41    3.24   -0.25
#  41   -7.36   -0.04    0.00    3.82    0.16    0.00    0.00      -3.42   10.56    0.43
#  42   -1.55   -0.16    0.01    0.53   -0.03    0.00    0.00      -1.20    3.65   -0.20
#  43   -2.87   -0.16    0.01    0.68   -0.04    0.00    0.00      -2.39    4.49   -0.28
#  44   -1.41   -0.12    0.01    0.54   -0.03    0.00    0.00      -1.01    4.93   -0.28
#  45   -2.48   -0.08    0.00    0.62   -0.02    0.00    0.00      -1.96    7.87   -0.28
#  46   -4.46   -0.33    0.14    1.04   -0.06    0.00    0.00      -3.67    4.82   -0.28
#  47   -2.29   -0.07    0.00    0.43   -0.02    0.00    0.00      -1.95    6.06   -0.28
#  48   -1.56   -0.12    0.01    0.56   -0.04    0.00    0.00      -1.16    3.71   -0.28
#  49   -3.81   -0.85    1.01    1.19   -0.08    0.00    0.00      -2.54    3.43   -0.23
#  50   -0.26   -0.18    0.02    0.27   -0.05    0.00    0.00      -0.20    1.48   -0.28
#  51   -1.11   -0.15    0.01    0.25   -0.04    0.00    0.00      -1.05    1.65   -0.28
#  52   -0.26   -0.03    0.00    0.07   -0.01    0.00    0.00      -0.23    2.07   -0.28
#  53   -0.62   -0.03    0.00    0.07   -0.01    0.00    0.00      -0.59    2.02   -0.28
#  54   -0.40   -0.04    0.00    0.01   -0.01    0.00    0.00      -0.44    0.35   -0.28
#  55   -0.14   -0.04    0.00    0.01   -0.01    0.00    0.00      -0.18    0.38   -0.28
#  56   -0.33    0.00    0.00    0.19    0.01    0.00    0.00      -0.13    7.84    0.56
#  57   -0.05   -0.04    0.00    0.17   -0.01    0.00    0.00       0.07    3.33   -0.21
#  58    0.04   -0.46    0.80    0.11   -0.04    0.00    0.00       0.44    0.73   -0.26
#  59   -0.03   -0.06    0.00    0.22   -0.01    0.00    0.00       0.11    3.23   -0.21
#  60   -0.04   -0.06    0.00    0.13   -0.02    0.00    0.00       0.01    1.90   -0.28
#  61   -0.20   -0.27    0.10    0.21   -0.05    0.00    0.00      -0.21    1.14   -0.28
#  62   -0.64   -0.20    0.04    0.29   -0.05    0.00    0.00      -0.55    1.62   -0.28
#  63   -3.04   -0.23    0.05    0.86   -0.06    0.00    0.00      -2.43    4.35   -0.28
#  64   -6.79   -1.17    2.70    2.34   -0.08    0.00    0.00      -3.01    6.39   -0.21
#  65   -4.33   -0.58    0.44    1.60   -0.12    0.00    0.00      -2.99    3.68   -0.28
#  66   -3.89   -0.52    0.24    0.55   -0.10    0.00    0.00      -3.72    1.37   -0.24
#  67   -3.78   -0.52    0.08    0.93   -0.10    0.00    0.00      -3.40    1.66   -0.18
#  68   -2.73   -0.69    0.42    0.67   -0.14    0.00    0.00      -2.46    1.30   -0.28

@<TRIPOS>MOLECULE
          T541197        61
   68    70     0     0     0



@<TRIPOS>ATOM
      1 F1          8.1466   -13.1060    96.6614 F          1          -0.1750
      2 C1          7.4716   -11.9898    96.1557 C.3        1           0.5102
      3 F2          7.8997   -11.7391    94.8475 F          1          -0.1651
      4 F3          6.0947   -12.2378    96.1562 F          1          -0.1652
      5 C2          7.7664   -10.7905    97.0192 C.ar       1          -0.1535
      6 C3          7.2016    -9.5667    96.7166 C.ar       1          -0.0898
      7 C4          7.4732    -8.4623    97.5128 C.ar       1           0.1527
      8 N1          6.9017    -7.2210    97.2085 N.am       1          -0.6742
      9 C5          5.7001    -7.1631    96.6010 C.2        1           0.7163
     10 O1          4.7241    -7.6525    97.1361 O.2        1          -0.5416
     11 N2          5.5801    -6.5625    95.4005 N.am       1          -0.6418
     12 C6          4.2775    -6.4819    94.7218 C.3        1           0.0850
     13 C7          4.4478    -6.9804    93.2829 C.3        1          -0.0215
     14 N3          5.5208    -6.2223    92.6271 N.4        1          -0.3840
     15 H1          5.3156    -5.2359    92.6811 H          1           0.4246
     16 C8          5.6113    -6.6253    91.2172 C.3        1          -0.0112
     17 C9          4.5235    -5.9117    90.4120 C.3        1          -0.1486
     18 C10         4.6179    -6.3313    88.9437 C.3        1          -0.1150
     19 C11         4.4246    -7.8450    88.8324 C.3        1          -0.1328
     20 C12         3.0493    -8.2255    89.3842 C.3        1           0.1176
     21 N4          2.8643    -9.6748    89.2777 N.am       1          -0.7318
     22 C13         3.2433   -10.4788    90.2907 C.2        1           0.5487
     23 O2          3.7392   -10.0010    91.2940 O.2        1          -0.5381
     24 C14         3.0581   -11.9284    90.1842 C.2        1          -0.2148
     25 C15         3.9056   -12.7646    90.8169 C.2        1          -0.0125
     26 C16         3.7196   -14.2205    90.7098 C.ar       1          -0.0534
     27 C17         2.4778   -14.7415    90.3292 C.ar       1          -0.1022
     28 C18         2.3056   -16.0982    90.2293 C.ar       1          -0.0720
     29 C19         3.3697   -16.9606    90.5081 C.ar       1          -0.0106
     30 C20         4.6103   -16.4410    90.8883 C.ar       1          -0.0707
     31 C21         4.7860   -15.0844    90.9831 C.ar       1          -0.0918
     32 C22         3.1886   -18.3772    90.4044 C.1        1           0.2428
     33 N5          3.0449   -19.5011    90.3222 N.1        1          -0.4002
     34 C23         6.8017    -6.4912    93.2925 C.3        1          -0.0270
     35 C24         6.7470    -5.9634    94.7344 C.3        1           0.1077
     36 C25         8.3123    -8.5910    98.6118 C.ar       1          -0.0901
     37 C26         8.8744    -9.8166    98.9100 C.ar       1          -0.0865
     38 C27         8.5979   -10.9173    98.1177 C.ar       1          -0.0056
     39 Cl1         9.3008   -12.4581    98.4992 Cl         1          -0.0306
     40 H2          6.5496    -9.4691    95.8611 H          1           0.1509
     41 H3          7.3707    -6.4026    97.4348 H          1           0.4098
     42 H4          3.5534    -7.1081    95.2431 H          1           0.1210
     43 H5          3.9325    -5.4480    94.7127 H          1           0.1049
     44 H6          4.7049    -8.0396    93.2932 H          1           0.1358
     45 H7          3.5156    -6.8380    92.7362 H          1           0.1478
     46 H8          6.5912    -6.3542    90.8241 H          1           0.1318
     47 H9          5.4737    -7.7036    91.1380 H          1           0.1349
     48 H10         3.5436    -6.1828    90.8051 H          1           0.0896
     49 H11         4.6612    -4.8333    90.4913 H          1           0.0888
     50 H12         3.8428    -5.8229    88.3701 H          1           0.0790
     51 H13         5.5975    -6.0602    88.5505 H          1           0.0796
     52 H14         4.4918    -8.1438    87.7863 H          1           0.0750
     53 H15         5.1996    -8.3533    89.4060 H          1           0.0747
     54 H16         2.9820    -7.9265    90.4302 H          1           0.0700
     55 H17         2.2743    -7.7172    88.8104 H          1           0.0701
     56 H18         2.4692   -10.0559    88.4779 H          1           0.4026
     57 H19         2.2427   -12.3271    89.5989 H          1           0.1328
     58 H20         4.7210   -12.3659    91.4020 H          1           0.1414
     59 H21         1.6553   -14.0754    90.1146 H          1           0.1374
     60 H22         1.3473   -16.5005    89.9357 H          1           0.1381
     61 H23         5.4318   -17.1081    91.1038 H          1           0.1400
     62 H24         5.7459   -14.6830    91.2729 H          1           0.1418
     63 H25         6.9877    -7.5651    93.3025 H          1           0.1358
     64 H26         7.6042    -5.9883    92.7528 H          1           0.1481
     65 H27         6.6472    -4.8781    94.7266 H          1           0.0993
     66 H28         7.6566    -6.2468    95.2642 H          1           0.1404
     67 H29         8.5254    -7.7333    99.2325 H          1           0.1757
     68 H30         9.5273    -9.9173    99.7644 H          1           0.1545
@<TRIPOS>BOND
     1    1    2 1
     2    2    3 1
     3    2    4 1
     4    2    5 1
     5    5   38 ar
     6    5    6 ar
     7    6    7 ar
     8    6   40 1
     9    7    8 1
    10    7   36 ar
    11    8    9 am
    12    8   41 1
    13    9   10 2
    14    9   11 am
    15   11   35 1
    16   11   12 1
    17   12   13 1
    18   12   42 1
    19   12   43 1
    20   13   14 1
    21   13   44 1
    22   13   45 1
    23   14   15 1
    24   14   16 1
    25   14   34 1
    26   16   17 1
    27   16   46 1
    28   16   47 1
    29   17   18 1
    30   17   48 1
    31   17   49 1
    32   18   19 1
    33   18   50 1
    34   18   51 1
    35   19   20 1
    36   19   52 1
    37   19   53 1
    38   20   21 1
    39   20   54 1
    40   20   55 1
    41   21   22 am
    42   21   56 1
    43   22   23 2
    44   22   24 1
    45   24   25 2
    46   24   57 1
    47   25   26 1
    48   25   58 1
    49   26   31 ar
    50   26   27 ar
    51   27   28 ar
    52   27   59 1
    53   28   29 ar
    54   28   60 1
    55   29   30 ar
    56   29   32 1
    57   30   31 ar
    58   30   61 1
    59   31   62 1
    60   32   33 3
    61   34   35 1
    62   34   63 1
    63   34   64 1
    64   35   65 1
    65   35   66 1
    66   36   37 ar
    67   36   67 1
    68   37   38 ar
    69   37   68 1
    70   38   39 1
##########                 Name:              T526690
##########          Protonation:                   54
##########               SMILES:   C[NH+](C[C@H]1CC[NH+](CC1)CCc2c(cccc2)OC)Cc3cc(c(cc3)O)Cl
##########            Long Name:   l-[[1-[2-(2-methoxyphenyl)ethyl]piperidin-1-ium-4-yl]methyl]-methyl-ammonium
##########          FlexRecCode: 1
##########               Number:                  175
##########   Ligand Source File: /raidb/db2/rgc/tcams/tcams-0000187.db2.gz
##########           GlobalRank: 436
##########                 Rank:                    1
##########               Setnum:                   97
##########             Matchnum:                 2805
##########                Cloud:                    1
##########        Electrostatic:           -50.573948
##########        Van der Waals:           -25.171017
##########  Ligand Polar Desolv:            14.567823
########## Ligand Apolar Desolv:            -2.745886
##########      Internal Energy:             0.000000
##########      Receptor Energy: 0.0
########## Receptor Desolvation:             0.000000
########## Receptor Hydrophobic:             0.000000
##########         Total Energy: -63.92
##########        Ligand Charge:             2.000000
##########            Arbitrary:    +999.9990
##########     heavy atom count:   28
##########           pose count:    1
##########        Ligand Energy:             0.000000
# num electro vdwattr vdwrepu polsolv apolsol rdesolv rhydroe totalscore fullpol fullapo
#   1   -0.80   -1.60    0.46    0.19    0.01    0.00    0.00      -1.74    0.41    0.03
#   2    8.91   -0.98    0.11   -2.39    0.29    0.00    0.00       5.95   -6.92    0.84
#   3   -2.60   -0.69    0.05    0.52   -0.08    0.00    0.00      -2.80    2.06   -0.31
#   4    3.31   -0.86    0.08   -1.42   -0.13    0.00    0.00       0.98   -4.73   -0.42
#   5    0.31   -0.50    0.02   -0.56   -0.10    0.00    0.00      -0.83   -2.62   -0.47
#   6    0.53   -0.29    0.01   -0.45   -0.05    0.00    0.00      -0.26   -4.09   -0.47
#   7    0.52   -0.29    0.01   -0.17   -0.05    0.00    0.00       0.02   -1.54   -0.45
#   8    1.92   -0.39    0.01   -0.41   -0.05    0.00    0.00       1.08   -2.67   -0.36
#   9    1.27   -0.22    0.01   -0.48   -0.03    0.00    0.00       0.54   -3.53   -0.20
#  10    0.34   -0.52    0.06    0.09   -0.06    0.00    0.00      -0.08    0.40   -0.28
#  11    7.56   -0.42    0.03   -2.91    0.08    0.00    0.00       4.34  -16.51    0.43
#  12   -5.11    0.00    0.00    0.86    0.02    0.00    0.00      -4.23   20.45    0.56
#  13    0.32   -0.62    0.12   -0.20   -0.09    0.00    0.00      -0.47   -0.86   -0.39
#  14    2.17   -0.33    0.02   -1.36   -0.04    0.00    0.00       0.46   -7.03   -0.21
#  15    2.21   -0.33    0.01   -1.06   -0.03    0.00    0.00       0.81   -5.51   -0.15
#  16    0.23   -0.82    0.16   -0.11   -0.09    0.00    0.00      -0.63   -0.40   -0.32
#  17   10.17   -0.74    0.04   -5.63    0.11    0.00    0.00       3.95  -17.51    0.33
#  18   -8.51   -0.01    0.00    1.99    0.04    0.00    0.00      -6.48   22.06    0.43
#  19    1.43   -0.68    0.05   -1.18   -0.14    0.00    0.00      -0.53   -3.62   -0.44
#  20   -1.57   -1.26    0.19    1.29   -0.16    0.00    0.00      -1.52    2.83   -0.36
#  21    5.35   -1.99    0.51   -1.52   -0.15    0.00    0.00       2.20   -3.25   -0.33
#  22    2.75   -3.54    1.80   -0.86   -0.20    0.00    0.00      -0.06   -1.51   -0.36
#  23    3.92   -3.63    2.27   -2.47   -0.26    0.00    0.00      -0.17   -4.36   -0.46
#  24   -3.65   -2.71    1.53    0.45   -0.15    0.00    0.00      -4.53    0.93   -0.31
#  25    9.85   -4.48    6.25   -4.32    0.58    0.00    0.00       7.87   -8.53    1.14
#  26    1.28   -1.48    0.33   -1.20   -0.12    0.00    0.00      -1.18   -2.83   -0.29
#  27    0.24   -3.24    0.79   -1.09   -0.43    0.00    0.00      -3.73   -2.48   -0.97
#  28    1.53   -1.32    0.20   -0.73   -0.17    0.00    0.00      -0.49   -1.90   -0.45
#  29    1.88   -0.37    0.03   -1.57   -0.03    0.00    0.00      -0.06   -8.59   -0.19
#  30    0.07   -0.43    0.04   -0.07   -0.09    0.00    0.00      -0.48   -0.31   -0.42
#  31   -2.69   -0.71    0.31    0.16   -0.12    0.00    0.00      -3.06    0.35   -0.27
#  32   -2.26   -0.85    0.61    0.54   -0.12    0.00    0.00      -2.08    1.15   -0.26
#  33   -3.96   -0.48    0.16    1.15   -0.11    0.00    0.00      -3.24    2.96   -0.28
#  34   -3.71   -0.40    0.18    0.43   -0.07    0.00    0.00      -3.57    1.41   -0.22
#  35   -0.42   -0.10    0.00    0.12   -0.03    0.00    0.00      -0.42    1.18   -0.28
#  36   -0.23   -0.04    0.00    0.11   -0.01    0.00    0.00      -0.18    2.70   -0.28
#  37   -0.73   -0.04    0.00    0.34   -0.01    0.00    0.00      -0.44    7.34   -0.28
#  38   -1.38   -0.06    0.00    0.35   -0.01    0.00    0.00      -1.11    5.94   -0.21
#  39   -0.91   -0.03    0.00    0.09   -0.01    0.00    0.00      -0.86    2.61   -0.26
#  40   -2.46   -0.19    0.04    0.79   -0.05    0.00    0.00      -1.88    4.42   -0.28
#  41   -4.34   -0.40    0.16    2.21   -0.04    0.00    0.00      -2.40    8.27   -0.15
#  42   -6.20   -0.74    0.80    1.45   -0.06    0.00    0.00      -4.75    5.47   -0.21
#  43   -2.58   -0.13    0.01    0.99   -0.04    0.00    0.00      -1.74    7.57   -0.28
#  44   -1.36   -0.16    0.02    0.88   -0.04    0.00    0.00      -0.66    5.02   -0.22
#  45   -0.99   -0.04    0.00    0.23   -0.01    0.00    0.00      -0.82    5.28   -0.28
#  46   -1.36   -0.07    0.00    0.48   -0.01    0.00    0.00      -0.97    7.34   -0.22
#  47   -5.98   -0.52    0.55    1.94   -0.06    0.00    0.00      -4.09    8.57   -0.28
#  48   -4.97   -0.44    0.14    2.51   -0.09    0.00    0.00      -2.85    8.21   -0.28
#  49   -3.13   -0.24    0.02    2.00   -0.05    0.00    0.00      -1.40    8.14   -0.22
#  50   -3.05   -0.37    0.10    1.02   -0.06    0.00    0.00      -2.37    3.36   -0.21
#  51   -2.42   -0.12    0.00    0.75   -0.03    0.00    0.00      -1.81    6.80   -0.28
#  52   -5.72   -0.54    0.10    4.12   -0.13    0.00    0.00      -2.17    8.59   -0.27
#  53   -4.29   -0.67    0.29    3.21   -0.11    0.00    0.00      -1.57    8.41   -0.28
#  54   -6.36   -1.04    0.55    4.69   -0.17    0.00    0.00      -2.33    7.81   -0.28
#  55   -5.19   -0.95    0.45    1.66   -0.19    0.00    0.00      -4.21    2.48   -0.28
#  56   -9.44   -0.34    0.29    4.29    0.69    0.00    0.00      -4.50    7.56    1.22
#  57   -2.40   -0.19    0.01    1.46   -0.06    0.00    0.00      -1.18    6.81   -0.28
#  58   -0.87   -0.16    0.03    0.66   -0.03    0.00    0.00      -0.37    5.27   -0.21
#  59   -0.40   -0.15    0.02    0.77   -0.03    0.00    0.00       0.22    6.40   -0.23
#  60   -2.01   -0.12    0.01    0.89   -0.03    0.00    0.00      -1.26    7.80   -0.28
#  61   -4.61   -0.27    0.11    1.02   -0.05    0.00    0.00      -3.80    5.36   -0.28

@<TRIPOS>MOLECULE
          T526690        54
   61    63     0     0     0



@<TRIPOS>ATOM
      1 C1          9.1544    -4.1304    87.5628 C.3        1           0.0224
      2 O1          8.6640    -5.3507    88.1220 O.3        1          -0.3245
      3 C2          9.5728    -6.3361    88.3452 C.ar       1           0.1382
      4 C3         10.9103    -6.1308    88.0378 C.ar       1          -0.2008
      5 C4         11.8320    -7.1339    88.2661 C.ar       1          -0.0598
      6 C5         11.4229    -8.3419    88.8007 C.ar       1          -0.1505
      7 C6         10.0910    -8.5491    89.1074 C.ar       1          -0.0747
      8 C7          9.1658    -7.5469    88.8861 C.ar       1          -0.1459
      9 C8          7.7150    -7.7712    89.2266 C.3        1          -0.0874
     10 C9          7.4559    -7.3321    90.6691 C.3        1          -0.0156
     11 N1          6.0417    -7.5506    91.0009 N.4        1          -0.3835
     12 H1          5.7357    -8.4252    90.6011 H          1           0.4362
     13 C10         5.2370    -6.4546    90.4472 C.3        1          -0.0127
     14 C11         3.7549    -6.7064    90.7324 C.3        1          -0.1416
     15 C12         3.5418    -6.7824    92.2466 C.3        1          -0.1292
     16 C13         3.9240    -5.4460    92.8862 C.3        1          -0.0075
     17 N2          3.2935    -5.3381    94.2087 N.4        1          -0.3878
     18 H2          3.3357    -6.2317    94.6753 H          1           0.4203
     19 C14         1.8901    -4.9338    94.0506 C.3        1          -0.0614
     20 C15         4.0052    -4.3333    95.0098 C.3        1           0.0478
     21 C16         5.2575    -4.9439    95.5843 C.ar       1          -0.1705
     22 C17         6.4491    -4.2438    95.5410 C.ar       1          -0.0737
     23 C18         7.5989    -4.8008    96.0667 C.ar       1          -0.1292
     24 C19         7.5578    -6.0639    96.6385 C.ar       1           0.1653
     25 O2          8.6876    -6.6138    97.1568 O.3        1          -0.4786
     26 C20         6.3605    -6.7652    96.6810 C.ar       1          -0.0706
     27 Cl1         6.3043    -8.3460    97.3961 Cl         1          -0.0223
     28 C21         5.2117    -6.2007    96.1585 C.ar       1          -0.0715
     29 C22         4.4271    -7.8950    92.8144 C.3        1          -0.1639
     30 C23         5.8865    -7.6021    92.4599 C.3        1          -0.0034
     31 H3          8.3282    -3.4309    87.4361 H          1           0.0645
     32 H4          9.8979    -3.6970    88.2319 H          1           0.0614
     33 H5          9.6114    -4.3325    86.5941 H          1           0.1078
     34 H6         11.2301    -5.1876    87.6200 H          1           0.1367
     35 H7         12.8729    -6.9746    88.0267 H          1           0.1350
     36 H8         12.1451    -9.1249    88.9784 H          1           0.1324
     37 H9          9.7739    -9.4935    89.5244 H          1           0.1285
     38 H10         7.0890    -7.1880    88.5512 H          1           0.0923
     39 H11         7.4764    -8.8294    89.1205 H          1           0.0997
     40 H12         8.0819    -7.9151    91.3444 H          1           0.1352
     41 H13         7.6945    -6.2738    90.7751 H          1           0.1295
     42 H14         5.5400    -5.5142    90.9073 H          1           0.1432
     43 H15         5.3942    -6.3979    89.3701 H          1           0.1361
     44 H16         3.1608    -5.8903    90.3213 H          1           0.1023
     45 H17         3.4500    -7.6470    90.2737 H          1           0.1247
     46 H18         2.4955    -7.0029    92.4578 H          1           0.1160
     47 H19         5.0071    -5.3916    92.9945 H          1           0.1378
     48 H20         3.5805    -4.6285    92.2522 H          1           0.1445
     49 H21         1.4223    -4.8537    95.0319 H          1           0.1225
     50 H22         1.8446    -3.9685    93.5466 H          1           0.1300
     51 H23         1.3620    -5.6792    93.4562 H          1           0.1300
     52 H24         4.2711    -3.4862    94.3774 H          1           0.1414
     53 H25         3.3616    -3.9932    95.8211 H          1           0.1443
     54 H26         6.4812    -3.2605    95.0955 H          1           0.1434
     55 H27         8.5292    -4.2533    96.0322 H          1           0.1551
     56 H28         9.4698    -6.0502    97.0811 H          1           0.4096
     57 H29         4.2788    -6.7435    96.1951 H          1           0.1444
     58 H30         4.3157    -7.9322    93.8981 H          1           0.1058
     59 H31         4.1314    -8.8516    92.3839 H          1           0.1061
     60 H32         6.5221    -8.3899    92.8644 H          1           0.1358
     61 H33         6.1797    -6.6441    92.8895 H          1           0.1403
@<TRIPOS>BOND
     1    1    2 1
     2    1   31 1
     3    1   32 1
     4    1   33 1
     5    2    3 1
     6    3    8 ar
     7    3    4 ar
     8    4    5 ar
     9    4   34 1
    10    5    6 ar
    11    5   35 1
    12    6    7 ar
    13    6   36 1
    14    7    8 ar
    15    7   37 1
    16    8    9 1
    17    9   10 1
    18    9   38 1
    19    9   39 1
    20   10   11 1
    21   10   40 1
    22   10   41 1
    23   11   12 1
    24   11   30 1
    25   11   13 1
    26   13   14 1
    27   13   42 1
    28   13   43 1
    29   14   15 1
    30   14   44 1
    31   14   45 1
    32   15   16 1
    33   15   29 1
    34   15   46 1
    35   16   17 1
    36   16   47 1
    37   16   48 1
    38   17   18 1
    39   17   19 1
    40   17   20 1
    41   19   49 1
    42   19   50 1
    43   19   51 1
    44   20   21 1
    45   20   52 1
    46   20   53 1
    47   21   28 ar
    48   21   22 ar
    49   22   23 ar
    50   22   54 1
    51   23   24 ar
    52   23   55 1
    53   24   25 1
    54   24   26 ar
    55   25   56 1
    56   26   27 1
    57   26   28 ar
    58   28   57 1
    59   29   30 1
    60   29   58 1
    61   29   59 1
    62   30   60 1
    63   30   61 1
##########                 Name:              T528534
##########          Protonation:                  100
##########               SMILES:   c[nH]c2cc1)C[C@H]3CC[NH+](CC3)C[C@H]4CC[C@H](CC4)NC(=O)/C=C/c5cc(c(cc5)Cl)Cl
##########            Long Name:   4-(1H-indol-3-ylmethyl)piperidin-1-ium-1-yl]methyl]cyclohexyl]prop-2-enamide
##########          FlexRecCode: 1
##########               Number:                  182
##########   Ligand Source File: /raidb/db2/rgc/tcams/tcams-0000466.db2.gz
##########           GlobalRank: 436
##########                 Rank:                    1
##########               Setnum:                  310
##########             Matchnum:                 3610
##########                Cloud:                    1
##########        Electrostatic:           -40.213173
##########        Van der Waals:           -26.427027
##########  Ligand Polar Desolv:             8.103094
########## Ligand Apolar Desolv:            -5.382960
##########      Internal Energy:             0.000000
##########      Receptor Energy: 0.0
########## Receptor Desolvation:             0.000000
########## Receptor Hydrophobic:             0.000000
##########         Total Energy: -63.92
##########        Ligand Charge:             1.000000
##########            Arbitrary:    +999.9990
##########     heavy atom count:   36
##########           pose count:    1
##########        Ligand Energy:             0.000000
# num electro vdwattr vdwrepu polsolv apolsol rdesolv rhydroe totalscore fullpol fullapo
#   1    0.04   -4.97    4.33   -0.13   -0.36    0.00    0.00      -1.09   -0.33   -0.95
#   2    0.03   -1.23    0.18   -0.12   -0.10    0.00    0.00      -1.23   -0.36   -0.30
#   3    0.20   -2.05    0.56   -0.33   -0.20    0.00    0.00      -1.82   -0.77   -0.46
#   4    0.16   -1.84    0.54   -0.30   -0.18    0.00    0.00      -1.62   -0.74   -0.45
#   5    0.11   -1.11    0.25   -0.12   -0.11    0.00    0.00      -0.97   -0.46   -0.41
#   6    0.01   -1.60    0.70   -0.13   -0.12    0.00    0.00      -1.14   -0.49   -0.44
#   7    0.37   -0.61    0.06   -0.42   -0.08    0.00    0.00      -0.68   -2.11   -0.43
#   8   -1.06   -0.99    0.21    1.19   -0.16    0.00    0.00      -0.81    4.99   -0.65
#   9    0.91   -3.22    3.49   -0.66    0.14    0.00    0.00       0.65   -1.88    0.39
#  10    3.27   -0.52    0.04   -1.94    0.32    0.00    0.00       1.18  -10.25    1.72
#  11   -1.63   -0.66    0.18    0.46   -0.07    0.00    0.00      -1.70    1.94   -0.28
#  12    3.97   -1.50    0.66   -0.66   -0.08    0.00    0.00       2.39   -1.98   -0.24
#  13    4.05   -2.11    1.50   -0.87   -0.08    0.00    0.00       2.48   -2.26   -0.20
#  14    3.03   -0.60    0.04   -0.75   -0.04    0.00    0.00       1.68   -2.58   -0.14
#  15    0.45   -0.50    0.05   -0.06   -0.06    0.00    0.00      -0.12   -0.27   -0.24
#  16   15.19   -1.99    2.73   -4.09    0.15    0.00    0.00      11.98  -11.94    0.43
#  17  -26.60   -0.27    0.25    5.29    0.13    0.00    0.00     -21.19   17.15    0.43
#  18    0.33   -1.25    0.53   -0.03   -0.13    0.00    0.00      -0.54   -0.09   -0.40
#  19    2.44   -0.68    0.08   -1.21   -0.06    0.00    0.00       0.56   -3.95   -0.21
#  20    1.62   -0.78    0.07   -0.72   -0.06    0.00    0.00       0.14   -1.81   -0.15
#  21    0.38   -1.14    0.19   -0.37   -0.10    0.00    0.00      -1.04   -0.82   -0.23
#  22    2.24   -1.83    0.44   -1.08   -0.17    0.00    0.00      -0.40   -2.27   -0.35
#  23   -1.17   -2.35    0.58    0.15   -0.56    0.00    0.00      -3.35    0.26   -0.99
#  24    9.89   -2.23    0.46   -3.33    0.65    0.00    0.00       5.44   -6.02    1.17
#  25   -1.06   -1.54    0.21    0.10   -0.39    0.00    0.00      -2.67    0.21   -0.78
#  26    1.17   -1.84    0.37   -0.67   -0.26    0.00    0.00      -1.23   -1.24   -0.48
#  27    0.89   -1.63    0.20   -0.53   -0.24    0.00    0.00      -1.31   -1.05   -0.47
#  28    1.14   -1.22    0.09   -0.81   -0.21    0.00    0.00      -1.00   -1.82   -0.47
#  29    0.46   -1.29    0.13   -0.27   -0.16    0.00    0.00      -1.13   -0.72   -0.42
#  30    0.91   -1.46    0.23   -0.52   -0.14    0.00    0.00      -0.98   -1.31   -0.36
#  31    3.26   -1.04    0.24   -1.63   -0.07    0.00    0.00       0.77   -4.00   -0.16
#  32    0.26   -1.23    0.26    0.23   -0.20    0.00    0.00      -0.68    0.49   -0.42
#  33    2.21   -0.38    0.01   -0.79   -0.05    0.00    0.00       1.01   -3.64   -0.21
#  34    1.32   -0.27    0.01   -0.40   -0.04    0.00    0.00       0.61   -2.47   -0.24
#  35    0.12   -0.58    0.08   -0.12   -0.07    0.00    0.00      -0.58   -0.75   -0.43
#  36    0.05   -0.61    0.07   -0.07   -0.06    0.00    0.00      -0.62   -0.40   -0.30
#  37    0.04   -0.48    0.01   -0.04   -0.09    0.00    0.00      -0.56   -0.39   -0.95
#  38   -0.35   -0.65    0.30    0.62   -0.13    0.00    0.00      -0.22    1.29   -0.28
#  39   -0.35   -0.45    0.11    0.72   -0.11    0.00    0.00      -0.08    1.80   -0.28
#  40   -0.17   -1.51    3.95    0.25   -0.09    0.00    0.00       2.43    0.76   -0.26
#  41   -0.20   -0.04    0.00    0.15   -0.01    0.00    0.00      -0.10    3.43   -0.21
#  42   -1.92    0.00    0.00    0.40    0.02    0.00    0.00      -1.50    8.98    0.45
#  43   -0.61   -0.51    0.66   -0.05   -0.05    0.00    0.00      -0.56   -0.24   -0.26
#  44   -2.56   -0.27    0.07   -0.08   -0.06    0.00    0.00      -2.90   -0.39   -0.28
#  45   -2.85   -0.96    0.90    0.54   -0.12    0.00    0.00      -2.49    1.30   -0.28
#  46   -4.28   -1.55    3.12    0.64   -0.11    0.00    0.00      -2.18    1.50   -0.26
#  47   -2.09   -1.43    5.39    0.64   -0.11    0.00    0.00       2.40    1.62   -0.28
#  48   -2.75   -0.20    0.01    0.78   -0.05    0.00    0.00      -2.21    3.69   -0.22
#  49   -2.01   -0.12    0.01    0.59   -0.03    0.00    0.00      -1.57    5.61   -0.28
#  50   -3.01   -0.11    0.01    0.43   -0.01    0.00    0.00      -2.70    4.29   -0.15
#  51   -3.66   -0.28    0.07    1.20   -0.05    0.00    0.00      -2.71    5.38   -0.22
#  52   -4.44   -0.94    1.59    1.91   -0.11    0.00    0.00      -1.99    4.96   -0.28
#  53   -0.91   -0.16    0.02    0.38   -0.03    0.00    0.00      -0.71    2.85   -0.22
#  54   -1.56   -0.30    0.08    0.44   -0.05    0.00    0.00      -1.39    2.26   -0.28
#  55   -1.79   -0.34    0.06    0.56   -0.09    0.00    0.00      -1.59    1.77   -0.28
#  56   -0.91   -0.48    0.12    0.59   -0.12    0.00    0.00      -0.80    1.40   -0.28
#  57   -0.31   -0.46    0.13    0.42   -0.09    0.00    0.00      -0.32    1.31   -0.28
#  58   -3.57   -0.58    0.11    1.82   -0.16    0.00    0.00      -2.37    3.27   -0.28
#  59   -7.98   -0.05    0.00    2.40    0.31    0.00    0.00      -5.32    4.63    0.59
#  60   -1.09   -0.71    0.49    0.29   -0.13    0.00    0.00      -1.15    0.65   -0.28
#  61   -1.13   -0.54    0.13    0.43   -0.12    0.00    0.00      -1.24    0.96   -0.28
#  62   -1.22   -0.27    0.03    0.47   -0.07    0.00    0.00      -1.06    1.80   -0.28
#  63   -0.21   -0.33    0.07    0.81   -0.06    0.00    0.00       0.28    3.13   -0.25
#  64   -1.61   -0.18    0.01    0.54   -0.04    0.00    0.00      -1.29    2.81   -0.20
#  65   -2.61   -0.90    1.16    0.38   -0.08    0.00    0.00      -2.05    1.00   -0.20
#  66   -4.80   -0.51    0.12    2.21   -0.14    0.00    0.00      -3.12    4.51   -0.28
#  67   -4.67   -0.39    0.05    2.14   -0.11    0.00    0.00      -2.98    5.27   -0.28
#  68   -1.11   -0.10    0.00    0.26   -0.02    0.00    0.00      -0.97    2.68   -0.22
#  69   -1.13   -0.13    0.00    0.60   -0.03    0.00    0.00      -0.68    4.60   -0.22
#  70   -0.40   -0.06    0.00    0.12   -0.02    0.00    0.00      -0.36    2.02   -0.28
#  71   -0.77   -0.06    0.00    0.07   -0.02    0.00    0.00      -0.78    1.07   -0.28
#  72   -0.18   -0.05    0.00    0.17   -0.01    0.00    0.00      -0.08    2.91   -0.21

@<TRIPOS>MOLECULE
          T528534       100
   72    76     0     0     0



@<TRIPOS>ATOM
      1 Cl1         3.0398    -8.6218    80.6947 Cl         1          -0.0354
      2 C1          2.9014    -7.8141    82.2250 C.ar       1          -0.0200
      3 C2          3.4282    -6.5426    82.3839 C.ar       1          -0.0977
      4 C3          3.3221    -5.8950    83.5959 C.ar       1          -0.0741
      5 C4          2.6800    -6.5243    84.6678 C.ar       1          -0.0662
      6 C5          2.5627    -5.8385    85.9646 C.2        1          -0.0061
      7 C6          2.3253    -6.5507    87.0848 C.2        1          -0.2185
      8 C7          2.2086    -5.8686    88.3747 C.2        1           0.5501
      9 O1          1.7850    -4.7288    88.4244 O.2        1          -0.5328
     10 N1          2.5704    -6.5029    89.5076 N.am       1          -0.7250
     11 C8          2.4536    -5.8204    90.7986 C.3        1           0.1434
     12 C9          3.7561    -5.0772    91.1021 C.3        1          -0.1320
     13 C10         3.6342    -4.3643    92.4505 C.3        1          -0.1088
     14 C11         3.3667    -5.3943    93.5496 C.3        1          -0.1131
     15 C12         4.5236    -6.3941    93.6042 C.3        1          -0.0178
     16 N2          5.7741    -5.6806    93.8956 N.4        1          -0.3805
     17 H1          5.9497    -5.0016    93.1702 H          1           0.4212
     18 C13         6.8835    -6.6405    93.9442 C.3        1          -0.0109
     19 C14         6.5851    -7.7183    94.9887 C.3        1          -0.1449
     20 C15         6.4179    -7.0592    96.3608 C.3        1          -0.0919
     21 C16         6.0410    -8.1210    97.3959 C.3        1          -0.0348
     22 C17         7.2803    -8.8584    97.8333 C.2        1          -0.1879
     23 C18         8.0823    -8.5337    98.8597 C.2        1           0.0662
     24 N3          9.1081    -9.4344    98.9532 N.pl3      1          -0.5924
     25 C19         8.9882   -10.3847    97.9640 C.ar       1           0.0945
     26 C20         9.7406   -11.5007    97.6116 C.ar       1          -0.1237
     27 C21         9.3528   -12.2772    96.5421 C.ar       1          -0.0966
     28 C22         8.2171   -11.9581    95.8101 C.ar       1          -0.1395
     29 C23         7.4636   -10.8668    96.1387 C.ar       1          -0.0830
     30 C24         7.8351   -10.0690    97.2228 C.ar       1          -0.1022
     31 C25         5.3080    -6.0072    96.2791 C.3        1          -0.1458
     32 C26         5.6544    -4.9943    95.1875 C.3        1          -0.0073
     33 C27         2.0643    -6.1376    93.2461 C.3        1          -0.1299
     34 C28         2.1862    -6.8505    91.8978 C.3        1          -0.1268
     35 C29         2.1499    -7.8075    84.5013 C.ar       1          -0.0829
     36 C30         2.2590    -8.4420    83.2810 C.ar       1          -0.0349
     37 Cl2         1.5961   -10.0324    83.0693 Cl         1          -0.0410
     38 H2          3.9237    -6.0577    81.5558 H          1           0.1510
     39 H3          3.7340    -4.9043    83.7180 H          1           0.1479
     40 H4          2.6668    -4.7649    86.0191 H          1           0.1447
     41 H5          2.2213    -7.6243    87.0302 H          1           0.1290
     42 H6          2.9080    -7.4114    89.4681 H          1           0.3966
     43 H7          1.6294    -5.1081    90.7597 H          1           0.0969
     44 H8          4.5803    -5.7894    91.1409 H          1           0.0806
     45 H9          3.9466    -4.3432    90.3191 H          1           0.0775
     46 H10         4.5621    -3.8348    92.6666 H          1           0.0738
     47 H11         2.8099    -3.6520    92.4116 H          1           0.0749
     48 H12         3.2798    -4.8864    94.5102 H          1           0.0973
     49 H13         4.3330    -7.1280    94.3873 H          1           0.1293
     50 H14         4.6104    -6.9021    92.6437 H          1           0.1377
     51 H15         7.0034    -7.1064    92.9660 H          1           0.1298
     52 H16         7.8026    -6.1196    94.2127 H          1           0.1290
     53 H17         5.6662    -8.2400    94.7210 H          1           0.0897
     54 H18         7.4108    -8.4290    95.0244 H          1           0.1115
     55 H19         7.3534    -6.5819    96.6524 H          1           0.0889
     56 H20         5.5808    -7.6399    98.2590 H          1           0.0739
     57 H21         5.3361    -8.8253    96.9539 H          1           0.0791
     58 H22         7.9393    -7.6868    99.5144 H          1           0.1694
     59 H23         9.8144    -9.4076    99.6174 H          1           0.4200
     60 H24        10.6258   -11.7570    98.1746 H          1           0.1228
     61 H25         9.9384   -13.1429    96.2699 H          1           0.1285
     62 H26         7.9270   -12.5772    94.9741 H          1           0.1234
     63 H27         6.5814   -10.6247    95.5648 H          1           0.1156
     64 H28         4.3626    -6.4934    96.0382 H          1           0.0868
     65 H29         5.2208    -5.4949    97.2372 H          1           0.1177
     66 H30         6.5997    -4.5085    95.4295 H          1           0.1283
     67 H31         4.8661    -4.2439    95.1282 H          1           0.1282
     68 H32         1.8736    -6.8714    94.0292 H          1           0.0764
     69 H33         1.2400    -5.4254    93.2073 H          1           0.0622
     70 H34         1.2583    -7.3799    91.6815 H          1           0.0853
     71 H35         3.0103    -7.5627    91.9366 H          1           0.0813
     72 H36         1.6534    -8.2992    85.3247 H          1           0.1446
@<TRIPOS>BOND
     1    1    2 1
     2    2   36 ar
     3    2    3 ar
     4    3    4 ar
     5    3   38 1
     6    4    5 ar
     7    4   39 1
     8    5    6 1
     9    5   35 ar
    10    6    7 2
    11    6   40 1
    12    7    8 1
    13    7   41 1
    14    8    9 2
    15    8   10 am
    16   10   11 1
    17   10   42 1
    18   11   34 1
    19   11   12 1
    20   11   43 1
    21   12   13 1
    22   12   44 1
    23   12   45 1
    24   13   14 1
    25   13   46 1
    26   13   47 1
    27   14   15 1
    28   14   33 1
    29   14   48 1
    30   15   16 1
    31   15   49 1
    32   15   50 1
    33   16   17 1
    34   16   32 1
    35   16   18 1
    36   18   19 1
    37   18   51 1
    38   18   52 1
    39   19   20 1
    40   19   53 1
    41   19   54 1
    42   20   21 1
    43   20   31 1
    44   20   55 1
    45   21   22 1
    46   21   56 1
    47   21   57 1
    48   22   30 1
    49   22   23 2
    50   23   24 1
    51   23   58 1
    52   24   25 1
    53   24   59 1
    54   25   30 ar
    55   25   26 ar
    56   26   27 ar
    57   26   60 1
    58   27   28 ar
    59   27   61 1
    60   28   29 ar
    61   28   62 1
    62   29   30 ar
    63   29   63 1
    64   31   32 1
    65   31   64 1
    66   31   65 1
    67   32   66 1
    68   32   67 1
    69   33   34 1
    70   33   68 1
    71   33   69 1
    72   34   70 1
    73   34   71 1
    74   35   36 ar
    75   35   72 1
    76   36   37 1
##########                 Name:              T532197
##########          Protonation:                   84
##########               SMILES:   2=O)[C@H]5[C@@H]([C@H]([NH2+]4)Cc6ccc(cc6)OC(C)(C)C)C(=O)N(C5=O)c7ccc(cc7)Br
##########            Long Name:   [1,2,3a,6a-tetrahydropyrrolo[3,4-c]pyrrol-2-ium-3,3'-indoline]-2',4,6-trione
##########          FlexRecCode: 1
##########               Number:                  149
##########   Ligand Source File: /raidb/db2/rgc/tcams/tcams-0000951.db2.gz
##########           GlobalRank: 436
##########                 Rank:                    1
##########               Setnum:                   58
##########             Matchnum:                 1472
##########                Cloud:                    1
##########        Electrostatic:           -36.137520
##########        Van der Waals:           -29.970392
##########  Ligand Polar Desolv:             5.925923
########## Ligand Apolar Desolv:            -3.739458
##########      Internal Energy:             0.000000
##########      Receptor Energy: 0.0
########## Receptor Desolvation:             0.000000
########## Receptor Hydrophobic:             0.000000
##########         Total Energy: -63.92
##########        Ligand Charge:             1.000000
##########            Arbitrary:    +999.9990
##########     heavy atom count:   49
##########           pose count:    1
##########        Ligand Energy:             0.000000
# num electro vdwattr vdwrepu polsolv apolsol rdesolv rhydroe totalscore fullpol fullapo
#   1    0.64   -0.17    0.00   -0.18   -0.02    0.00    0.00       0.28   -1.85   -0.17
#   2   -0.62   -0.37    0.02    0.21   -0.02    0.00    0.00      -0.78    0.97   -0.07
#   3    4.01   -0.76    0.11   -0.74   -0.05    0.00    0.00       2.57   -2.17   -0.16
#   4    0.35   -0.59    0.13   -0.28   -0.04    0.00    0.00      -0.44   -1.19   -0.18
#   5    3.52   -0.70    0.09   -0.73    0.21    0.00    0.00       2.39   -2.97    0.87
#   6   -2.28   -0.60    0.05    0.20   -0.06    0.00    0.00      -2.70    0.91   -0.29
#   7    4.90   -0.98    0.08   -1.22   -0.09    0.00    0.00       2.69   -3.67   -0.27
#   8    1.52   -1.59    0.51   -0.46   -0.14    0.00    0.00      -0.16   -1.49   -0.46
#   9    2.75   -0.67    0.06   -0.63   -0.07    0.00    0.00       1.44   -3.05   -0.35
#  10    1.31   -0.54    0.06   -0.55   -0.05    0.00    0.00       0.23   -2.29   -0.20
#  11   -1.51   -0.93    0.33    0.51   -0.06    0.00    0.00      -1.66    1.95   -0.22
#  12   14.80   -1.28    0.39   -4.28    0.19    0.00    0.00       9.82  -14.63    0.64
#  13  -16.55   -0.03    0.00    3.63    0.13    0.00    0.00     -12.82   15.73    0.56
#  14  -14.02   -0.04    0.00    5.64    0.18    0.00    0.00      -8.24   16.97    0.54
#  15   -1.36   -0.32    0.01    0.66   -0.02    0.00    0.00      -1.03    3.57   -0.11
#  16    1.23   -0.26    0.01   -0.38   -0.04    0.00    0.00       0.57   -2.60   -0.24
#  17    2.43   -0.30    0.02   -0.41   -0.04    0.00    0.00       1.70   -2.52   -0.23
#  18  -11.71   -0.75    0.09    2.60   -0.12    0.00    0.00      -9.90   11.33   -0.54
#  19   11.42   -1.50    0.47   -2.39    0.12    0.00    0.00       8.12   -8.39    0.41
#  20    7.64   -0.67    0.05   -2.14    0.25    0.00    0.00       5.13   -9.48    1.11
#  21   -4.18   -0.81    0.17    1.89   -0.08    0.00    0.00      -3.00    9.70   -0.41
#  22   -0.35   -1.66    1.20   -1.49    0.10    0.00    0.00      -2.20   -6.25    0.41
#  23   -1.49   -0.87    0.08    0.45   -0.15    0.00    0.00      -1.99    1.58   -0.53
#  24    1.47   -0.99    0.06   -0.44   -0.16    0.00    0.00      -0.06   -1.26   -0.46
#  25    1.15   -1.71    0.36   -0.41   -0.20    0.00    0.00      -0.82   -0.93   -0.46
#  26    0.96   -1.64    0.22   -0.44   -0.14    0.00    0.00      -1.04   -0.93   -0.30
#  27    0.40   -9.44    5.49   -0.34   -0.66    0.00    0.00      -4.54   -0.56   -1.10
#  28    0.86   -1.26    0.11   -0.37   -0.17    0.00    0.00      -0.83   -1.00   -0.46
#  29    0.95   -1.08    0.12   -0.36   -0.14    0.00    0.00      -0.52   -1.17   -0.46
#  30   -3.15   -0.44    0.03    1.88   -0.10    0.00    0.00      -1.77   11.47   -0.59
#  31    1.76   -0.31    0.01   -1.45    0.06    0.00    0.00       0.07   -9.25    0.41
#  32    1.24   -0.46    0.04   -1.55    0.23    0.00    0.00      -0.51   -9.99    1.46
#  33   -0.22   -0.29    0.01    0.41   -0.07    0.00    0.00      -0.15    2.49   -0.44
#  34    0.19   -0.26    0.00   -0.15   -0.04    0.00    0.00      -0.25   -1.45   -0.38
#  35    0.10   -0.15    0.00   -0.06   -0.03    0.00    0.00      -0.14   -1.11   -0.45
#  36    0.11   -0.11    0.00   -0.06   -0.02    0.00    0.00      -0.07   -1.20   -0.40
#  37    0.04   -0.15    0.00   -0.04   -0.02    0.00    0.00      -0.17   -0.61   -0.34
#  38    0.17   -0.36    0.02   -0.17   -0.06    0.00    0.00      -0.40   -1.24   -0.43
#  39    0.15   -0.47    0.04   -0.18   -0.07    0.00    0.00      -0.53   -1.08   -0.45
#  40    0.03   -0.08    0.00   -0.01    0.00    0.00    0.00      -0.07   -0.21   -0.07
#  41    0.08   -0.04    0.00   -0.03   -0.01    0.00    0.00       0.01   -0.89   -0.17
#  42    0.11   -0.21    0.02   -0.11   -0.02    0.00    0.00      -0.21   -0.92   -0.13
#  43    0.11   -0.08    0.00   -0.05   -0.01    0.00    0.00      -0.03   -0.88   -0.17
#  44   -1.40   -0.53    0.03    0.57   -0.14    0.00    0.00      -1.47    3.04   -0.72
#  45    1.51   -0.92    0.18   -0.66   -0.12    0.00    0.00      -0.01   -2.52   -0.45
#  46    0.86   -1.36    0.40   -0.39   -0.15    0.00    0.00      -0.64   -1.22   -0.47
#  47    2.81   -0.97    0.09   -0.84   -0.15    0.00    0.00       0.95   -2.64   -0.47
#  48    0.87   -0.60    0.02   -0.23   -0.09    0.00    0.00      -0.03   -0.98   -0.38
#  49    2.83   -0.51    0.02   -0.80   -0.04    0.00    0.00       1.50   -4.27   -0.24
#  50    0.95   -0.26    0.01   -0.16   -0.05    0.00    0.00       0.48   -1.50   -0.44
#  51    1.34   -0.30    0.01   -0.36   -0.05    0.00    0.00       0.64   -3.06   -0.46
#  52   -0.14   -0.03    0.00    0.03   -0.01    0.00    0.00      -0.15    0.94   -0.17
#  53   -0.22   -0.05    0.00    0.01   -0.01    0.00    0.00      -0.27    0.24   -0.28
#  54   -0.67   -0.05    0.00    0.04   -0.01    0.00    0.00      -0.69    0.97   -0.27
#  55   -2.55   -0.62    0.56    0.33   -0.09    0.00    0.00      -2.38    0.99   -0.27
#  56   -1.57   -0.21    0.02    0.11   -0.06    0.00    0.00      -1.70    0.52   -0.28
#  57   -1.23   -0.20    0.02    0.36   -0.04    0.00    0.00      -1.09    1.47   -0.15
#  58   -0.30   -0.63    0.79    0.07   -0.08    0.00    0.00      -0.16    0.24   -0.28
#  59   -0.14   -0.11    0.01    0.05   -0.03    0.00    0.00      -0.22    0.42   -0.28
#  60   -0.18   -0.11    0.01    0.09   -0.03    0.00    0.00      -0.22    0.87   -0.28
#  61   -4.85   -0.26    0.02    0.59   -0.04    0.00    0.00      -4.54    1.81   -0.13
#  62   -5.53   -1.31    3.87    1.26   -0.10    0.00    0.00      -1.82    3.42   -0.28
#  63   -1.38   -0.33    0.08    1.71   -0.07    0.00    0.00       0.00    6.20   -0.27
#  64   -1.05   -0.06    0.00    0.26   -0.02    0.00    0.00      -0.87    4.11   -0.28
#  65   -7.09   -1.03    1.95    1.43   -0.06    0.00    0.00      -4.79    5.28   -0.21
#  66   -0.65   -0.07    0.00    0.40   -0.02    0.00    0.00      -0.34    5.53   -0.27
#  67   -2.30   -0.05    0.00    0.37   -0.01    0.00    0.00      -1.99    8.53   -0.27
#  68   -2.88   -0.16    0.01    0.25   -0.04    0.00    0.00      -2.83    1.66   -0.28
#  69   -2.60   -0.62    0.32    0.49   -0.12    0.00    0.00      -2.53    1.12   -0.28
#  70   -1.61   -0.23    0.02    0.46   -0.06    0.00    0.00      -1.42    2.07   -0.28
#  71   -1.20   -0.20    0.03    0.59   -0.04    0.00    0.00      -0.83    3.52   -0.26
#  72   -0.14   -0.12    0.01    0.32   -0.03    0.00    0.00       0.03    2.41   -0.26
#  73   -0.14   -0.09    0.00    0.20   -0.03    0.00    0.00      -0.06    2.09   -0.27
#  74   -0.15   -0.03    0.00    0.05   -0.01    0.00    0.00      -0.13    1.68   -0.28
#  75   -0.10   -0.01    0.00    0.02    0.00    0.00    0.00      -0.10    0.98   -0.24
#  76   -0.20   -0.11    0.02    0.10   -0.02    0.00    0.00      -0.22    0.93   -0.20
#  77   -0.27   -0.21    0.05    0.36   -0.05    0.00    0.00      -0.11    1.99   -0.25
#  78   -0.03   -0.01    0.00    0.00    0.00    0.00    0.00      -0.04    0.25   -0.28
#  79   -0.04   -0.01    0.00    0.01    0.00    0.00    0.00      -0.05    0.36   -0.28
#  80   -0.03   -0.01    0.00    0.01    0.00    0.00    0.00      -0.04    0.45   -0.25
#  81   -0.04   -0.05    0.00    0.02   -0.01    0.00    0.00      -0.08    0.39   -0.26
#  82   -0.04   -0.08    0.01    0.03   -0.02    0.00    0.00      -0.11    0.33   -0.28
#  83   -0.05   -0.09    0.01    0.03   -0.02    0.00    0.00      -0.12    0.36   -0.26
#  84   -0.04   -0.02    0.00    0.01   -0.01    0.00    0.00      -0.05    0.42   -0.25
#  85   -0.06   -0.04    0.00    0.01   -0.01    0.00    0.00      -0.09    0.35   -0.28
#  86   -0.04   -0.02    0.00    0.01   -0.01    0.00    0.00      -0.07    0.26   -0.28
#  87   -1.80   -0.28    0.11    0.44   -0.05    0.00    0.00      -1.57    2.30   -0.24
#  88   -5.13   -0.68    0.86    0.81   -0.10    0.00    0.00      -4.24    2.36   -0.28
#  89   -4.40   -0.32    0.10    0.80   -0.07    0.00    0.00      -3.89    3.03   -0.28
#  90   -2.39   -0.11    0.00    0.38   -0.02    0.00    0.00      -2.13    3.99   -0.17
#  91   -0.93   -0.03    0.00    0.20   -0.01    0.00    0.00      -0.77    6.09   -0.28
#  92   -0.70   -0.04    0.00    0.07   -0.01    0.00    0.00      -0.69    1.50   -0.28

@<TRIPOS>MOLECULE
          T532197        84
   92    98     0     0     0



@<TRIPOS>ATOM
      1 C1         10.7673    -8.2440    88.1689 C.3        1          -0.2001
      2 C2         10.8713    -7.0638    87.2008 C.3        1           0.1080
      3 C3         11.0649    -5.7695    87.9936 C.3        1          -0.2035
      4 C4         12.0653    -7.2734    86.2673 C.3        1          -0.1422
      5 O1          9.6725    -6.9744    86.4282 O.3        1          -0.3002
      6 C5          8.5118    -6.7865    87.1097 C.ar       1           0.1595
      7 C6          8.0615    -5.5010    87.3738 C.ar       1          -0.2143
      8 C7          6.8810    -5.3126    88.0662 C.ar       1          -0.0629
      9 C8          6.1489    -6.4038    88.4965 C.ar       1          -0.1734
     10 C9          4.8619    -6.1954    89.2522 C.3        1          -0.0844
     11 C10         5.1567    -6.1250    90.7518 C.3        1           0.0502
     12 N1          4.0172    -5.5258    91.4787 N.4        1          -0.4919
     13 H1          4.2748    -5.2959    92.4268 H          1           0.4445
     14 H2          3.6671    -4.7132    90.9936 H          1           0.4392
     15 C11         3.0338    -6.6219    91.4512 C.3        1           0.0972
     16 C12         3.8413    -7.8754    91.8004 C.3        1          -0.1206
     17 C13         5.2646    -7.5348    91.3479 C.3        1          -0.1345
     18 C14         6.0320    -7.4736    92.6371 C.2        1           0.5310
     19 O2          7.2116    -7.2093    92.7277 O.2        1          -0.4237
     20 N2          5.2318    -7.7511    93.6699 N.am       1          -0.5187
     21 C15         3.9748    -7.9979    93.2921 C.2        1           0.5398
     22 O3          3.0691    -8.2809    94.0466 O.2        1          -0.4129
     23 C16         5.6638    -7.7798    95.0037 C.ar       1           0.1106
     24 C17         5.0903    -6.9289    95.9387 C.ar       1          -0.0874
     25 C18         5.5175    -6.9591    97.2518 C.ar       1          -0.0746
     26 C19         6.5161    -7.8365    97.6356 C.ar       1          -0.0729
     27 Br1         7.0982    -7.8756    99.4343 Br         1          -0.0225
     28 C20         7.0893    -8.6856    96.7056 C.ar       1          -0.0768
     29 C21         6.6616    -8.6632    95.3925 C.ar       1          -0.0907
     30 C22         2.3512    -6.7365    90.1164 C.2        1           0.5310
     31 O4          2.8972    -6.9304    89.0509 O.2        1          -0.4414
     32 N3          1.0304    -6.5869    90.3110 N.am       1          -0.5233
     33 C23         0.0301    -6.6353    89.2418 C.3        1           0.1515
     34 C24        -0.4440    -8.0544    89.0612 C.ar       1          -0.1381
     35 C25         0.2098    -8.8945    88.1793 C.ar       1          -0.0914
     36 C26        -0.2250   -10.1963    88.0137 C.ar       1          -0.1156
     37 C27        -1.3132   -10.6579    88.7303 C.ar       1          -0.0449
     38 C28        -1.9663    -9.8181    89.6129 C.ar       1          -0.1198
     39 C29        -1.5289    -8.5177    89.7817 C.ar       1          -0.0911
     40 C30        -1.7878   -12.0768    88.5490 C.3        1          -0.0346
     41 C31        -0.8995   -12.7846    87.5238 C.3        1          -0.1392
     42 C32        -1.7109   -12.8152    89.8867 C.3        1          -0.1469
     43 C33        -3.2349   -12.0708    88.0521 C.3        1          -0.1408
     44 C34         0.7294    -6.3801    91.6581 C.ar       1           0.1906
     45 C35        -0.4902    -6.1813    92.3004 C.ar       1          -0.1209
     46 C36        -0.5314    -5.9966    93.6668 C.ar       1          -0.0371
     47 C37         0.6368    -6.0082    94.4070 C.ar       1          -0.1218
     48 C38         1.8514    -6.2052    93.7755 C.ar       1          -0.0493
     49 C39         1.8978    -6.3897    92.4093 C.ar       1          -0.2184
     50 C40         6.5954    -7.6858    88.2342 C.ar       1          -0.0908
     51 C41         7.7725    -7.8795    87.5375 C.ar       1          -0.1485
     52 H3         10.6293    -9.1661    87.6041 H          1           0.0776
     53 H4         11.6819    -8.3121    88.7581 H          1           0.0725
     54 H5          9.9169    -8.0946    88.8340 H          1           0.0785
     55 H6         11.1391    -4.9287    87.3040 H          1           0.0792
     56 H7         10.2141    -5.6202    88.6586 H          1           0.0695
     57 H8         11.9791    -5.8378    88.5830 H          1           0.0805
     58 H9         12.1393    -6.4326    85.5776 H          1           0.0706
     59 H10        12.9796    -7.3416    86.8567 H          1           0.0688
     60 H11        11.9274    -8.1955    85.7026 H          1           0.0836
     61 H12         8.6333    -4.6485    87.0384 H          1           0.1588
     62 H13         6.5299    -4.3123    88.2721 H          1           0.1324
     63 H14         4.3975    -5.2638    88.9291 H          1           0.1071
     64 H15         4.1852    -7.0266    89.0536 H          1           0.1323
     65 H16         6.0702    -5.5596    90.9361 H          1           0.1535
     66 H17         3.4420    -8.7773    91.3364 H          1           0.1766
     67 H18         5.6734    -8.2604    90.6448 H          1           0.1812
     68 H19         4.3110    -6.2436    95.6396 H          1           0.1377
     69 H20         5.0719    -6.2971    97.9795 H          1           0.1481
     70 H21         7.8689    -9.3693    97.0075 H          1           0.1476
     71 H22         7.1059    -9.3296    94.6680 H          1           0.1329
     72 H23        -0.8156    -6.0006    89.5066 H          1           0.1076
     73 H24         0.4743    -6.2797    88.3122 H          1           0.1102
     74 H25         1.0599    -8.5338    87.6195 H          1           0.1235
     75 H26         0.2853   -10.8523    87.3242 H          1           0.1253
     76 H27        -2.8168   -10.1787    90.1724 H          1           0.1314
     77 H28        -2.0369    -7.8626    90.4739 H          1           0.1190
     78 H29        -1.2427   -13.8108    87.3926 H          1           0.0555
     79 H30        -0.9544   -12.2584    86.5709 H          1           0.0635
     80 H31         0.1314   -12.7887    87.8777 H          1           0.0565
     81 H32        -2.0541   -13.8414    89.7556 H          1           0.0600
     82 H33        -0.6799   -12.8193    90.2407 H          1           0.0631
     83 H34        -2.3437   -12.3109    90.6171 H          1           0.0584
     84 H35        -3.5782   -13.0971    87.9209 H          1           0.0575
     85 H36        -3.8676   -11.5666    88.7824 H          1           0.0635
     86 H37        -3.2897   -11.5447    87.0991 H          1           0.0580
     87 H38        -1.4057    -6.1712    91.7274 H          1           0.1430
     88 H39        -1.4796    -5.8419    94.1605 H          1           0.1503
     89 H40         0.6006    -5.8640    95.4767 H          1           0.1467
     90 H41         2.7643    -6.2140    94.3524 H          1           0.1232
     91 H42         6.0216    -8.5365    88.5711 H          1           0.1257
     92 H43         8.1189    -8.8812    87.3296 H          1           0.1380
@<TRIPOS>BOND
     1    1    2 1
     2    1   52 1
     3    1   53 1
     4    1   54 1
     5    2    3 1
     6    2    4 1
     7    2    5 1
     8    3   55 1
     9    3   56 1
    10    3   57 1
    11    4   58 1
    12    4   59 1
    13    4   60 1
    14    5    6 1
    15    6   51 ar
    16    6    7 ar
    17    7    8 ar
    18    7   61 1
    19    8    9 ar
    20    8   62 1
    21    9   10 1
    22    9   50 ar
    23   10   11 1
    24   10   63 1
    25   10   64 1
    26   11   17 1
    27   11   12 1
    28   11   65 1
    29   12   13 1
    30   12   14 1
    31   12   15 1
    32   15   49 1
    33   15   16 1
    34   15   30 1
    35   16   21 1
    36   16   17 1
    37   16   66 1
    38   17   18 1
    39   17   67 1
    40   18   19 2
    41   18   20 am
    42   20   21 am
    43   20   23 1
    44   21   22 2
    45   23   29 ar
    46   23   24 ar
    47   24   25 ar
    48   24   68 1
    49   25   26 ar
    50   25   69 1
    51   26   27 1
    52   26   28 ar
    53   28   29 ar
    54   28   70 1
    55   29   71 1
    56   30   31 2
    57   30   32 am
    58   32   33 1
    59   32   44 1
    60   33   34 1
    61   33   72 1
    62   33   73 1
    63   34   39 ar
    64   34   35 ar
    65   35   36 ar
    66   35   74 1
    67   36   37 ar
    68   36   75 1
    69   37   38 ar
    70   37   40 1
    71   38   39 ar
    72   38   76 1
    73   39   77 1
    74   40   41 1
    75   40   42 1
    76   40   43 1
    77   41   78 1
    78   41   79 1
    79   41   80 1
    80   42   81 1
    81   42   82 1
    82   42   83 1
    83   43   84 1
    84   43   85 1
    85   43   86 1
    86   44   49 ar
    87   44   45 ar
    88   45   46 ar
    89   45   87 1
    90   46   47 ar
    91   46   88 1
    92   47   48 ar
    93   47   89 1
    94   48   49 ar
    95   48   90 1
    96   50   51 ar
    97   50   91 1
    98   51   92 1
##########                 Name:              T537997
##########          Protonation:                   11
##########               SMILES:   Cc1ccc(c(c1)Oc2c[nH+]c(nc2N)N[C@@H](CO)c3ccccc3)C(C)C
##########            Long Name:   5-(2-isopropyl-5-methyl-phenoxy)pyrimidin-1-ium-2-yl]amino]-2-phenyl-ethanol
##########          FlexRecCode: 1
##########               Number:                    7
##########   Ligand Source File: /raidb/db2/rgc/tcams/tcams-0001706.db2.gz
##########           GlobalRank: 436
##########                 Rank:                    1
##########               Setnum:                  287
##########             Matchnum:                 5048
##########                Cloud:                    1
##########        Electrostatic:           -45.422836
##########        Van der Waals:           -20.214249
##########  Ligand Polar Desolv:             3.516236
########## Ligand Apolar Desolv:            -1.802567
##########      Internal Energy:             0.000000
##########      Receptor Energy: 0.0
########## Receptor Desolvation:             0.000000
########## Receptor Hydrophobic:             0.000000
##########         Total Energy: -63.92
##########        Ligand Charge:             1.000000
##########            Arbitrary:    +999.9990
##########     heavy atom count:   28
##########           pose count:    1
##########        Ligand Energy:             0.000000
# num electro vdwattr vdwrepu polsolv apolsol rdesolv rhydroe totalscore fullpol fullapo
#   1    3.95   -0.92    0.14   -0.67   -0.08    0.00    0.00       2.43   -1.63   -0.19
#   2    1.23   -0.52    0.02   -0.14   -0.06    0.00    0.00       0.53   -0.47   -0.19
#   3    4.25   -1.23    0.24   -0.68   -0.08    0.00    0.00       2.50   -1.60   -0.18
#   4    1.58   -0.78    0.03   -0.42   -0.10    0.00    0.00       0.31   -1.42   -0.34
#   5    1.47   -1.34    0.15   -0.41   -0.16    0.00    0.00      -0.29   -1.04   -0.41
#   6    2.11   -1.41    0.18   -0.76   -0.18    0.00    0.00      -0.05   -1.90   -0.45
#   7    0.53   -1.11    0.12   -0.31   -0.14    0.00    0.00      -0.91   -0.89   -0.41
#   8    1.23   -0.81    0.07   -0.59   -0.07    0.00    0.00      -0.18   -1.61   -0.20
#   9    1.27   -1.36    0.66   -0.75   -0.11    0.00    0.00      -0.28   -2.83   -0.42
#  10   -0.88   -0.90    0.20    0.41   -0.07    0.00    0.00      -1.23    1.86   -0.30
#  11    1.65   -0.59    0.07   -0.74    0.07    0.00    0.00       0.47   -4.02    0.40
#  12    0.76   -0.44    0.02   -0.48   -0.03    0.00    0.00      -0.17   -2.83   -0.19
#  13   -5.87   -1.10    0.37    1.71   -0.22    0.00    0.00      -5.10    7.59   -0.96
#  14   20.45   -2.24    1.57   -4.14    0.28    0.00    0.00      15.91  -14.76    0.98
#  15  -23.19   -0.13    0.03    4.66    0.13    0.00    0.00     -18.51   15.09    0.43
#  16  -13.35   -0.88    0.12    3.75   -1.16    0.00    0.00     -11.52   15.46   -4.78
#  17    8.97   -1.34    0.32   -4.05    0.42    0.00    0.00       4.31  -14.51    1.50
#  18   -0.71   -0.39    0.03    0.78   -0.04    0.00    0.00      -0.33    4.06   -0.22
#  19   -0.22   -0.93    0.25    0.30   -0.04    0.00    0.00      -0.63    1.05   -0.14
#  20    3.42   -3.14    3.67   -4.29    0.62    0.00    0.00       0.28  -10.81    1.56
#  21    0.87   -0.39    0.02   -0.23   -0.05    0.00    0.00       0.22   -1.53   -0.34
#  22    0.25   -0.36    0.04   -0.15   -0.04    0.00    0.00      -0.26   -1.30   -0.38
#  23    0.27   -0.38    0.07   -0.18   -0.05    0.00    0.00      -0.27   -1.61   -0.47
#  24    0.38   -0.31    0.03   -0.16   -0.05    0.00    0.00      -0.11   -1.45   -0.47
#  25    1.16   -0.35    0.01   -0.23   -0.06    0.00    0.00       0.53   -1.76   -0.47
#  26    1.50   -0.46    0.02   -0.29   -0.08    0.00    0.00       0.68   -1.63   -0.45
#  27    5.43   -0.35    0.01   -1.91    0.33    0.00    0.00       3.50  -12.08    2.06
#  28   -4.55   -0.30    0.01    1.21   -0.25    0.00    0.00      -3.88   10.11   -2.11
#  29    1.91   -0.25    0.01   -1.47    0.09    0.00    0.00       0.29  -14.70    0.92
#  30   -1.69   -0.29    0.07    0.14   -0.08    0.00    0.00      -1.85    0.52   -0.28
#  31   -1.51   -0.37    0.05    0.32   -0.12    0.00    0.00      -1.63    0.76   -0.28
#  32   -1.77   -0.31    0.06    0.11   -0.07    0.00    0.00      -1.98    0.40   -0.25
#  33   -1.54   -0.10    0.00    0.12   -0.02    0.00    0.00      -1.54    1.31   -0.24
#  34   -2.13   -0.38    0.07    0.13   -0.08    0.00    0.00      -2.39    0.40   -0.25
#  35   -1.44   -0.49    0.15    0.24   -0.10    0.00    0.00      -1.64    0.68   -0.28
#  36   -1.97   -0.65    0.33    0.21   -0.11    0.00    0.00      -2.19    0.53   -0.28
#  37   -3.51   -0.54    0.21    0.41   -0.08    0.00    0.00      -3.51    1.19   -0.24
#  38   -2.17   -0.46    0.22    0.42   -0.10    0.00    0.00      -2.09    1.14   -0.28
#  39   -0.58   -0.20    0.01    0.18   -0.06    0.00    0.00      -0.64    0.91   -0.28
#  40   -0.96   -0.28    0.04    0.35   -0.06    0.00    0.00      -0.92    1.49   -0.28
#  41   -0.62   -0.41    0.10    0.20   -0.08    0.00    0.00      -0.80    0.69   -0.28
#  42   -0.28   -0.31    0.14    0.58   -0.04    0.00    0.00       0.09    3.16   -0.23
#  43   -7.79   -0.29    0.14    1.52   -0.05    0.00    0.00      -6.47    9.18   -0.28
#  44  -14.38   -0.06    0.00    2.67    0.15    0.00    0.00     -11.61    8.43    0.47
#  45   -0.32   -0.06    0.00    0.33   -0.01    0.00    0.00      -0.06    5.38   -0.22
#  46   -0.29   -0.19    0.02    0.35   -0.05    0.00    0.00      -0.16    1.95   -0.28
#  47   -0.12   -0.58    0.59    0.66   -0.07    0.00    0.00       0.48    2.72   -0.28
#  48  -11.91   -0.37    0.47    2.97    0.47    0.00    0.00      -8.37    7.85    1.24
#  49   -0.28   -0.05    0.00    0.11   -0.01    0.00    0.00      -0.23    1.98   -0.23
#  50   -0.24   -0.05    0.00    0.06   -0.02    0.00    0.00      -0.24    1.00   -0.28
#  51   -0.26   -0.04    0.00    0.04   -0.01    0.00    0.00      -0.28    0.82   -0.28
#  52   -1.40   -0.06    0.00    0.09   -0.02    0.00    0.00      -1.39    1.49   -0.28
#  53   -2.94   -0.15    0.01    0.57   -0.04    0.00    0.00      -2.55    3.64   -0.28
#  54   -0.53   -0.01    0.00    0.66    0.04    0.00    0.00       0.18    8.02    0.54
#  55   -0.66    0.00    0.00    0.28    0.02    0.00    0.00      -0.36    8.18    0.59

@<TRIPOS>MOLECULE
          T537997        11
   55    57     0     0     0



@<TRIPOS>ATOM
      1 C1          1.2284    -5.6644    95.5698 C.3        1          -0.1473
      2 C2          2.3795    -5.6273    94.5625 C.3        1          -0.0551
      3 C3          2.8264    -4.1793    94.3519 C.3        1          -0.1467
      4 C4          3.5351    -6.4380    95.0902 C.ar       1          -0.0844
      5 C5          4.1300    -6.0950    96.2890 C.ar       1          -0.0707
      6 C6          5.1905    -6.8380    96.7734 C.ar       1          -0.1293
      7 C7          5.6584    -7.9264    96.0600 C.ar       1          -0.0481
      8 C8          6.8146    -8.7340    96.5911 C.3        1          -0.1211
      9 C9          5.0668    -8.2742    94.8615 C.ar       1          -0.1919
     10 C10         3.9989    -7.5330    94.3753 C.ar       1           0.0862
     11 O1          3.4117    -7.8760    93.1990 O.3        1          -0.2223
     12 C11         3.9036    -7.3263    92.0553 C.ar       1          -0.0528
     13 C12         4.9741    -6.4488    92.0938 C.ar       1           0.2010
     14 N1          5.4282    -5.9316    90.9606 N.ar       1          -0.5675
     15 H1          6.1778    -5.3164    90.9826 H          1           0.4425
     16 C13         4.8736    -6.2427    89.7993 C.ar       1           0.6592
     17 N2          5.3797    -5.6802    88.6378 N.pl3      1          -0.6528
     18 C14         5.2982    -6.4143    87.3727 C.3        1           0.1752
     19 C15         5.1951    -5.4217    86.2130 C.3        1           0.0599
     20 O2          6.0629    -4.3128    86.4566 O.3        1          -0.5570
     21 C16         6.5339    -7.2598    87.2020 C.ar       1          -0.1142
     22 C17         6.4685    -8.4437    86.4914 C.ar       1          -0.0858
     23 C18         7.6021    -9.2194    86.3347 C.ar       1          -0.1144
     24 C19         8.8010    -8.8108    86.8883 C.ar       1          -0.0988
     25 C20         8.8666    -7.6264    87.5980 C.ar       1          -0.1141
     26 C21         7.7341    -6.8487    87.7511 C.ar       1          -0.1028
     27 N3          3.8485    -7.0773    89.7179 N.ar       1          -0.5597
     28 C22         3.3431    -7.6388    90.8108 C.ar       1           0.5214
     29 N4          2.2729    -8.5172    90.7210 N.pl3      1          -0.7640
     30 H2          0.9100    -6.6959    95.7198 H          1           0.0646
     31 H3          1.5626    -5.2455    96.5190 H          1           0.0537
     32 H4          0.3927    -5.0779    95.1880 H          1           0.0601
     33 H5          2.0453    -6.0461    93.6133 H          1           0.0840
     34 H6          3.6465    -4.1527    93.6344 H          1           0.0594
     35 H7          1.9906    -3.5929    93.9703 H          1           0.0558
     36 H8          3.1606    -3.7605    95.3012 H          1           0.0639
     37 H9          3.7665    -5.2454    96.8481 H          1           0.1392
     38 H10         5.6545    -6.5677    97.7104 H          1           0.1333
     39 H11         7.0401    -9.5448    95.8984 H          1           0.0771
     40 H12         7.6889    -8.0916    96.6955 H          1           0.0645
     41 H13         6.5509    -9.1498    97.5637 H          1           0.0767
     42 H14         5.4324    -9.1246    94.3050 H          1           0.1149
     43 H15         5.4337    -6.1886    93.0359 H          1           0.2220
     44 H16         5.7879    -4.8007    88.6628 H          1           0.4443
     45 H17         4.4172    -7.0561    87.3811 H          1           0.1092
     46 H18         5.4872    -5.9148    85.2857 H          1           0.0806
     47 H19         4.1678    -5.0676    86.1281 H          1           0.0481
     48 H20         5.8610    -3.8262    87.2675 H          1           0.3943
     49 H21         5.5318    -8.7630    86.0589 H          1           0.1245
     50 H22         7.5508   -10.1447    85.7802 H          1           0.1306
     51 H23         9.6864    -9.4171    86.7665 H          1           0.1307
     52 H24         9.8032    -7.3074    88.0309 H          1           0.1316
     53 H25         7.7861    -5.9216    88.3024 H          1           0.1259
     54 H26         1.9074    -8.9199    91.5241 H          1           0.4351
     55 H27         1.8904    -8.7285    89.8551 H          1           0.4313
@<TRIPOS>BOND
     1    1    2 1
     2    1   30 1
     3    1   31 1
     4    1   32 1
     5    2    3 1
     6    2    4 1
     7    2   33 1
     8    3   34 1
     9    3   35 1
    10    3   36 1
    11    4   10 ar
    12    4    5 ar
    13    5    6 ar
    14    5   37 1
    15    6    7 ar
    16    6   38 1
    17    7    8 1
    18    7    9 ar
    19    8   39 1
    20    8   40 1
    21    8   41 1
    22    9   10 ar
    23    9   42 1
    24   10   11 1
    25   11   12 1
    26   12   28 ar
    27   12   13 ar
    28   13   14 ar
    29   13   43 1
    30   14   15 1
    31   14   16 ar
    32   16   17 1
    33   16   27 ar
    34   17   18 1
    35   17   44 1
    36   18   19 1
    37   18   21 1
    38   18   45 1
    39   19   20 1
    40   19   46 1
    41   19   47 1
    42   20   48 1
    43   21   26 ar
    44   21   22 ar
    45   22   23 ar
    46   22   49 1
    47   23   24 ar
    48   23   50 1
    49   24   25 ar
    50   24   51 1
    51   25   26 ar
    52   25   52 1
    53   26   53 1
    54   27   28 ar
    55   28   29 1
    56   29   54 1
    57   29   55 1
##########                 Name:              T525681
##########          Protonation:                   14
##########               SMILES:   CCC1(NC(=[NH2+])NC(=[NH2+])N1OCc2ccc(c(c2)Cl)Cl)CC
##########            Long Name:   [(3,4-dichlorophenyl)methoxy]-6,6-diethyl-1,3,5-triazinan-2-ylidene]ammonium
##########          FlexRecCode: 1
##########               Number:                  275
##########   Ligand Source File: /raidb/db2/rgc/tcams/tcams-0000047.db2.gz
##########           GlobalRank: 438
##########                 Rank:                    1
##########               Setnum:                   83
##########             Matchnum:                 3775
##########                Cloud:                    1
##########        Electrostatic:           -66.574966
##########        Van der Waals:           -19.122068
##########  Ligand Polar Desolv:            23.754143
########## Ligand Apolar Desolv:            -1.961254
##########      Internal Energy:             0.000000
##########      Receptor Energy: 0.0
########## Receptor Desolvation:             0.000000
########## Receptor Hydrophobic:             0.000000
##########         Total Energy: -63.9
##########        Ligand Charge:             2.000000
##########            Arbitrary:    +999.9990
##########     heavy atom count:   22
##########           pose count:    1
##########        Ligand Energy:             0.000000
# num electro vdwattr vdwrepu polsolv apolsol rdesolv rhydroe totalscore fullpol fullapo
#   1    0.59   -0.18    0.00   -0.87   -0.02    0.00    0.00      -0.48   -8.23   -0.17
#   2    1.41   -0.26    0.01   -1.04   -0.04    0.00    0.00       0.08   -6.60   -0.23
#   3   -5.11   -0.32    0.01    3.23   -0.05    0.00    0.00      -2.24   18.56   -0.27
#   4    0.10   -1.10    0.82   -1.28   -0.05    0.00    0.00      -1.52   -5.05   -0.20
#   5    1.37   -0.90    0.18   -2.05   -0.07    0.00    0.00      -1.47   -5.39   -0.19
#   6   14.64   -0.64    0.02   -8.24    0.34    0.00    0.00       6.11  -32.52    1.35
#   7  -23.28   -1.42    0.24   13.42   -1.15    0.00    0.00     -12.18   37.62   -3.21
#   8   19.60   -3.53    3.50  -14.45    0.36    0.00    0.00       5.49  -32.07    0.81
#   9  -11.68   -0.04    0.00    8.57    0.22    0.00    0.00      -2.93   23.86    0.60
#  10  -15.25   -0.18    0.08   12.65    0.31    0.00    0.00      -2.39   24.84    0.60
#  11   30.03   -3.21    3.44  -11.61    0.42    0.00    0.00      19.07  -31.83    1.15
#  12  -26.06   -1.60    0.87    9.52   -0.79    0.00    0.00     -18.07   36.73   -3.05
#  13   25.34   -2.48    2.02   -9.16    0.23    0.00    0.00      15.96  -32.02    0.82
#  14  -24.70   -0.14    0.03    8.47    0.20    0.00    0.00     -16.14   25.10    0.60
#  15  -11.27   -0.01    0.00    2.82    0.06    0.00    0.00      -8.40   22.86    0.45
#  16    8.42   -0.51    0.02   -4.05    0.14    0.00    0.00       4.03  -21.66    0.77
#  17    0.64   -0.45    0.03   -0.65    0.06    0.00    0.00      -0.36   -3.63    0.35
#  18   -0.87   -0.41    0.03    0.42   -0.03    0.00    0.00      -0.86    1.86   -0.13
#  19    1.81   -1.02    0.17   -0.42   -0.11    0.00    0.00       0.42   -1.57   -0.39
#  20    1.95   -1.36    0.28   -0.49   -0.16    0.00    0.00       0.22   -1.42   -0.45
#  21    2.08   -1.55    0.27   -1.22   -0.19    0.00    0.00      -0.61   -2.94   -0.46
#  22    0.09   -1.42    0.18   -0.58   -0.12    0.00    0.00      -1.85   -1.47   -0.30
#  23    0.22   -4.05    0.92   -1.00   -0.53    0.00    0.00      -4.45   -1.81   -0.95
#  24    0.37   -1.23    0.14   -0.57   -0.10    0.00    0.00      -1.40   -1.65   -0.30
#  25    0.13   -3.05    0.87   -0.72   -0.38    0.00    0.00      -3.15   -1.80   -0.95
#  26    0.61   -1.14    0.19   -0.53   -0.13    0.00    0.00      -1.00   -1.84   -0.45
#  27   -0.18   -0.04    0.00    0.08   -0.01    0.00    0.00      -0.15    1.94   -0.28
#  28   -0.25   -0.04    0.00    0.18   -0.01    0.00    0.00      -0.12    4.34   -0.17
#  29   -0.04   -0.08    0.00    0.33   -0.02    0.00    0.00       0.21    3.88   -0.18
#  30   -1.47   -0.12    0.01    0.58   -0.03    0.00    0.00      -1.03    4.78   -0.28
#  31   -0.96   -0.08    0.00    0.33   -0.02    0.00    0.00      -0.72    4.36   -0.27
#  32    0.31   -0.46    0.34    0.96   -0.06    0.00    0.00       1.09    4.49   -0.28
#  33    0.80   -0.72    1.49    0.70   -0.06    0.00    0.00       2.22    3.41   -0.27
#  34   -0.48   -0.59    0.28    0.73   -0.08    0.00    0.00      -0.13    1.85   -0.21
#  35   -1.02   -0.21    0.02    0.75   -0.06    0.00    0.00      -0.52    2.91   -0.24
#  36   -0.62   -0.17    0.01   -0.06   -0.06    0.00    0.00      -0.89   -0.28   -0.28
#  37   -9.81   -0.01    0.00    2.48    0.06    0.00    0.00      -7.28   21.52    0.55
#  38  -30.93   -0.19    0.07   10.59    0.23    0.00    0.00     -20.22   26.67    0.59
#  39   -1.14   -0.10    0.01    0.44   -0.02    0.00    0.00      -0.81    5.33   -0.27
#  40   -1.99   -0.17    0.02    1.24   -0.04    0.00    0.00      -0.93    7.41   -0.22
#  41   -5.42   -0.42    0.28    2.16   -0.07    0.00    0.00      -3.47    8.43   -0.28
#  42   -3.79   -0.48    0.28    1.23   -0.12    0.00    0.00      -2.88    2.94   -0.28
#  43   -0.79   -0.20    0.02    0.86   -0.05    0.00    0.00      -0.16    5.10   -0.28

@<TRIPOS>MOLECULE
          T525681        14
   43    44     0     0     0



@<TRIPOS>ATOM
      1 C1          1.9478    -8.1251    90.9501 C.3        1          -0.1835
      2 C2          1.8062    -6.9302    91.8950 C.3        1          -0.1610
      3 C3          2.7875    -7.0815    93.0591 C.3        1           0.4057
      4 C4          2.4736    -8.3599    93.8392 C.3        1          -0.1363
      5 C5          1.0468    -8.2858    94.3867 C.3        1          -0.1652
      6 N1          2.6884    -5.9123    93.9522 N.pl3      1          -0.7039
      7 C6          3.2585    -4.7274    93.5079 C.cat      1           0.7770
      8 N2          2.6481    -3.5828    93.6278 N.pl3      1          -0.6751
      9 H1          1.7696    -3.5423    94.0372 H          1           0.4684
     10 H2          3.0720    -2.7714    93.3078 H          1           0.4604
     11 N3          4.5206    -4.8309    92.9260 N.pl3      1          -0.6737
     12 C7          4.7286    -5.9421    92.1108 C.cat      1           0.7717
     13 N4          5.4103    -5.8652    91.0037 N.pl3      1          -0.6809
     14 H3          5.7902    -5.0169    90.7260 H          1           0.4601
     15 H4          5.5383    -6.6562    90.4570 H          1           0.4595
     16 N5          4.1686    -7.1354    92.5454 N.pl3      1          -0.4838
     17 O1          4.8923    -8.3515    92.4980 O.3        1          -0.0641
     18 C8          6.3052    -8.1930    92.6412 C.3        1           0.0540
     19 C9          6.6463    -8.0222    94.0992 C.ar       1          -0.1107
     20 C10         6.6751    -6.7580    94.6585 C.ar       1          -0.0760
     21 C11         6.9877    -6.6000    95.9954 C.ar       1          -0.0949
     22 C12         7.2717    -7.7072    96.7750 C.ar       1          -0.0060
     23 Cl1         7.6638    -7.5093    98.4545 Cl         1          -0.0129
     24 C13         7.2423    -8.9729    96.2150 C.ar       1          -0.0352
     25 Cl2         7.5978   -10.3633    97.1919 Cl         1          -0.0176
     26 C14         6.9245    -9.1297    94.8777 C.ar       1          -0.0658
     27 H5          1.2488    -8.0173    90.1207 H          1           0.1151
     28 H6          2.9664    -8.1643    90.5641 H          1           0.0491
     29 H7          1.7291    -9.0450    91.4923 H          1           0.0425
     30 H8          2.0247    -6.0102    91.3528 H          1           0.1335
     31 H9          0.7876    -6.8910    92.2812 H          1           0.1219
     32 H10         2.5643    -9.2211    93.1772 H          1           0.1209
     33 H11         3.1755    -8.4621    94.6668 H          1           0.1142
     34 H12         0.8231    -9.1964    94.9425 H          1           0.0742
     35 H13         0.9560    -7.4246    95.0487 H          1           0.0574
     36 H14         0.3448    -8.1835    93.5592 H          1           0.0874
     37 H15         2.2445    -5.9688    94.8126 H          1           0.4664
     38 H16         5.2132    -4.1694    93.0795 H          1           0.4809
     39 H17         6.8114    -9.0757    92.2507 H          1           0.1035
     40 H18         6.6301    -7.3127    92.0865 H          1           0.0790
     41 H19         6.4535    -5.8935    94.0502 H          1           0.1392
     42 H20         7.0108    -5.6122    96.4316 H          1           0.1562
     43 H21         6.8974   -10.1171    94.4412 H          1           0.1482
@<TRIPOS>BOND
     1    1    2 1
     2    1   27 1
     3    1   28 1
     4    1   29 1
     5    2    3 1
     6    2   30 1
     7    2   31 1
     8    3   16 1
     9    3    4 1
    10    3    6 1
    11    4    5 1
    12    4   32 1
    13    4   33 1
    14    5   34 1
    15    5   35 1
    16    5   36 1
    17    6    7 1
    18    6   37 1
    19    7    8 2
    20    7   11 1
    21    8    9 1
    22    8   10 1
    23   11   12 1
    24   11   38 1
    25   12   13 2
    26   12   16 1
    27   13   14 1
    28   13   15 1
    29   16   17 1
    30   17   18 1
    31   18   19 1
    32   18   39 1
    33   18   40 1
    34   19   26 ar
    35   19   20 ar
    36   20   21 ar
    37   20   41 1
    38   21   22 ar
    39   21   42 1
    40   22   23 1
    41   22   24 ar
    42   24   25 1
    43   24   26 ar
    44   26   43 1
##########                 Name:              T529976
##########          Protonation:                   93
##########               SMILES:   CC[NH2+]Cc2cc(ccc2)c3c(cccc3)CN(C(=O)NCCc4ccccc4)[C@H]5CC[NH+](CC5)Cc6ccccc6
##########            Long Name:   yl)-(phenethylcarbamoyl)amino]methyl]phenyl]phenyl]methyl-phenethyl-ammonium
##########          FlexRecCode: 1
##########               Number:                  219
##########   Ligand Source File: /raidb/db2/rgc/tcams/tcams-0000673.db2.gz
##########           GlobalRank: 438
##########                 Rank:                    1
##########               Setnum:                  324
##########             Matchnum:                 2039
##########                Cloud:                    1
##########        Electrostatic:           -31.050167
##########        Van der Waals:           -29.760401
##########  Ligand Polar Desolv:             1.595826
########## Ligand Apolar Desolv:            -4.680761
##########      Internal Energy:             0.000000
##########      Receptor Energy: 0.0
########## Receptor Desolvation:             0.000000
########## Receptor Hydrophobic:             0.000000
##########         Total Energy: -63.9
##########        Ligand Charge:             2.000000
##########            Arbitrary:    +999.9990
##########     heavy atom count:   48
##########           pose count:    1
##########        Ligand Energy:             0.000000
# num electro vdwattr vdwrepu polsolv apolsol rdesolv rhydroe totalscore fullpol fullapo
#   1   -0.25   -0.38    0.04   -1.29    0.04    0.00    0.00      -1.84  -11.11    0.32
#   2   -0.80   -0.25    0.01    1.48   -0.13    0.00    0.00       0.31   15.56   -1.35
#   3    1.74   -0.19    0.00   -1.30    0.13    0.00    0.00       0.39  -16.84    1.74
#   4   -0.20   -0.13    0.00    0.24   -0.03    0.00    0.00      -0.12    3.16   -0.43
#   5    0.23   -0.32    0.02   -0.25   -0.04    0.00    0.00      -0.37   -1.36   -0.23
#   6    0.80   -0.61    0.05   -0.27   -0.07    0.00    0.00      -0.10   -1.32   -0.36
#   7    1.33   -0.63    0.03   -0.49   -0.12    0.00    0.00       0.12   -1.88   -0.45
#   8    2.48   -1.05    0.16   -0.56   -0.15    0.00    0.00       0.87   -1.79   -0.47
#   9    2.95   -1.52    0.62   -0.55   -0.14    0.00    0.00       1.36   -1.80   -0.47
#  10    2.52   -1.14    0.24   -0.50   -0.12    0.00    0.00       0.99   -1.87   -0.47
#  11    1.49   -1.16    0.39   -0.42   -0.10    0.00    0.00       0.20   -1.84   -0.45
#  12    1.45   -0.25    0.01   -1.76    0.13    0.00    0.00      -0.43  -16.51    1.20
#  13   -0.55   -0.16    0.00    0.36   -0.03    0.00    0.00      -0.38    3.77   -0.31
#  14    0.68   -0.54    0.04   -0.59   -0.04    0.00    0.00      -0.45   -3.04   -0.20
#  15    0.95   -1.08    0.19   -1.14   -0.07    0.00    0.00      -1.15   -4.20   -0.25
#  16    1.01   -1.53    0.34   -1.25   -0.14    0.00    0.00      -1.58   -3.65   -0.42
#  17    0.87   -1.11    0.14   -1.30   -0.16    0.00    0.00      -1.57   -3.77   -0.47
#  18    0.52   -1.06    0.15   -0.79   -0.13    0.00    0.00      -1.31   -2.81   -0.46
#  19    0.28   -0.70    0.08   -0.11   -0.08    0.00    0.00      -0.53   -0.52   -0.37
#  20    0.20   -0.64    0.12   -0.42   -0.06    0.00    0.00      -0.79   -2.44   -0.34
#  21    0.83   -0.50    0.03   -0.57   -0.08    0.00    0.00      -0.28   -2.99   -0.43
#  22    1.86   -0.38    0.01   -0.63   -0.05    0.00    0.00       0.81   -4.39   -0.37
#  23   -1.05   -0.52    0.09    0.50   -0.09    0.00    0.00      -1.06    2.46   -0.42
#  24   15.10   -0.88    0.27   -5.21    0.18    0.00    0.00       9.47  -21.63    0.73
#  25  -12.81   -0.02    0.00    3.77    0.10    0.00    0.00      -8.95   21.86    0.57
#  26  -17.62   -0.03    0.00    4.58    0.12    0.00    0.00     -12.95   21.34    0.57
#  27    0.13   -0.41    0.03    0.20   -0.08    0.00    0.00      -0.14    1.02   -0.40
#  28    1.71   -0.55    0.03   -1.15   -0.08    0.00    0.00      -0.04   -3.72   -0.25
#  29    1.87   -0.96    0.06   -0.60   -0.13    0.00    0.00       0.24   -1.71   -0.36
#  30    0.88   -1.48    0.27   -1.02   -0.16    0.00    0.00      -1.51   -2.79   -0.45
#  31    1.18   -1.34    0.13   -1.11   -0.18    0.00    0.00      -1.31   -2.88   -0.47
#  32    1.63   -2.07    0.74   -1.13   -0.19    0.00    0.00      -1.02   -2.78   -0.47
#  33    2.45   -2.62    1.20   -1.29   -0.21    0.00    0.00      -0.47   -2.91   -0.47
#  34    2.68   -1.43    0.22   -1.15   -0.19    0.00    0.00       0.13   -2.75   -0.45
#  35    0.40   -0.29    0.02   -0.37   -0.05    0.00    0.00      -0.29   -3.52   -0.46
#  36    0.02   -0.45    0.11   -0.59   -0.05    0.00    0.00      -0.97   -5.07   -0.47
#  37    0.04   -0.81    0.43   -0.51   -0.05    0.00    0.00      -0.91   -3.62   -0.37
#  38   -0.34   -0.24    0.02    0.53   -0.04    0.00    0.00      -0.08    4.17   -0.32
#  39    0.07   -0.12    0.00   -0.36   -0.01    0.00    0.00      -0.42   -5.07   -0.21
#  40    0.01   -0.05    0.00    0.01   -0.01    0.00    0.00      -0.04    0.31   -0.38
#  41    0.22   -0.05    0.00   -0.36    0.01    0.00    0.00      -0.18  -12.33    0.27
#  42   -0.20    0.00    0.00    0.26    0.01    0.00    0.00       0.06   16.72    0.54
#  43   -0.03   -0.05    0.00    0.06   -0.01    0.00    0.00      -0.03    1.77   -0.36
#  44    0.05   -0.18    0.01   -0.28   -0.03    0.00    0.00      -0.43   -3.51   -0.33
#  45    0.04   -0.29    0.03   -0.27   -0.05    0.00    0.00      -0.55   -2.71   -0.45
#  46    0.01   -0.97    0.60   -0.60   -0.07    0.00    0.00      -1.02   -3.82   -0.47
#  47   -0.03   -1.21    0.79   -0.60   -0.09    0.00    0.00      -1.14   -3.27   -0.47
#  48   -0.05   -0.62    0.15   -0.54   -0.07    0.00    0.00      -1.12   -3.49   -0.47
#  49    0.00   -0.26    0.02   -0.24   -0.04    0.00    0.00      -0.52   -2.34   -0.36
#  50    0.03   -0.06    0.00   -0.07   -0.01    0.00    0.00      -0.10   -1.62   -0.32
#  51    0.15   -0.20    0.02   -0.45   -0.02    0.00    0.00      -0.51   -4.72   -0.21
#  52   -1.62    0.00    0.00    0.37    0.01    0.00    0.00      -1.23   11.15    0.37
#  53   -0.02   -0.03    0.00    0.00   -0.01    0.00    0.00      -0.06    0.14   -0.28
#  54   -0.10   -0.03    0.00    0.03   -0.01    0.00    0.00      -0.10    0.96   -0.28
#  55   -0.10   -0.20    0.06    0.49   -0.05    0.00    0.00       0.20    2.95   -0.28
#  56   -0.08   -0.09    0.00    0.22   -0.03    0.00    0.00       0.03    2.26   -0.28
#  57   -0.98   -0.11    0.00    0.23   -0.03    0.00    0.00      -0.89    2.27   -0.28
#  58   -3.56   -0.26    0.03    0.38   -0.08    0.00    0.00      -3.50    1.32   -0.28
#  59   -4.36   -0.48    0.24    0.33   -0.08    0.00    0.00      -4.35    1.12   -0.28
#  60   -3.19   -0.21    0.03    0.36   -0.06    0.00    0.00      -3.06    1.74   -0.28
#  61   -1.27   -0.44    0.40    0.57   -0.05    0.00    0.00      -0.79    3.16   -0.28
#  62   -0.56   -0.03    0.00    0.16    0.00    0.00    0.00      -0.44    4.78   -0.10
#  63   -0.30   -0.04    0.00    0.07   -0.01    0.00    0.00      -0.27    2.41   -0.26
#  64   -0.28   -0.31    0.12    0.67   -0.02    0.00    0.00       0.19    3.25   -0.10
#  65   -1.08   -0.58    0.34    1.19   -0.10    0.00    0.00      -0.23    3.40   -0.28
#  66   -1.13   -0.19    0.01    0.69   -0.05    0.00    0.00      -0.68    3.54   -0.28
#  67   -0.39   -0.26    0.05    1.13   -0.06    0.00    0.00       0.47    5.62   -0.28
#  68   -2.17   -0.14    0.01    0.86   -0.04    0.00    0.00      -1.47    6.53   -0.28
#  69   -4.91   -0.33    0.15    1.27   -0.05    0.00    0.00      -3.87    6.68   -0.28
#  70   -2.89   -0.11    0.01    0.85   -0.03    0.00    0.00      -2.19    7.24   -0.28
#  71   -2.11   -0.09    0.00    0.46   -0.02    0.00    0.00      -1.77    5.70   -0.28
#  72   -0.70   -0.19    0.05    0.85   -0.04    0.00    0.00      -0.03    6.10   -0.28
#  73   -2.34   -0.18    0.01    0.90   -0.05    0.00    0.00      -1.67    5.04   -0.28
#  74   -1.16   -0.21    0.02    0.98   -0.06    0.00    0.00      -0.42    4.71   -0.28
#  75    0.19   -0.75    0.85    1.54   -0.10    0.00    0.00       1.74    4.51   -0.28
#  76   -0.97   -0.33    0.06    0.39   -0.08    0.00    0.00      -0.93    1.43   -0.28
#  77   -2.15   -0.66    0.49    0.24   -0.09    0.00    0.00      -2.18    0.74   -0.28
#  78   -3.30   -1.12    1.53    0.81   -0.14    0.00    0.00      -2.23    1.56   -0.28
#  79   -4.08   -0.33    0.05    1.86   -0.11    0.00    0.00      -2.62    4.83   -0.28
#  80   -0.68   -0.04    0.00    0.21   -0.01    0.00    0.00      -0.52    5.57   -0.28
#  81   -0.04   -0.05    0.00    0.20   -0.02    0.00    0.00       0.10    3.47   -0.28
#  82   -0.07   -0.15    0.05    0.52   -0.02    0.00    0.00       0.33    4.80   -0.18
#  83   -0.58   -0.19    0.04    0.24   -0.05    0.00    0.00      -0.54    1.41   -0.28
#  84   -0.01   -0.04    0.00    0.06    0.00    0.00    0.00       0.01    1.53   -0.11
#  85   -0.04   -0.03    0.00    0.10   -0.01    0.00    0.00       0.02    3.74   -0.28
#  86   -0.09   -0.01    0.00    0.06    0.00    0.00    0.00      -0.04    3.29   -0.12
#  87   -0.06   -0.01    0.00    0.08    0.00    0.00    0.00       0.00    5.18   -0.28
#  88   -0.08   -0.01    0.00    0.09    0.00    0.00    0.00       0.00    5.18   -0.24
#  89   -0.13   -0.02    0.00    0.13   -0.01    0.00    0.00      -0.02    6.05   -0.27
#  90   -0.09   -0.03    0.00    0.14   -0.01    0.00    0.00       0.01    4.62   -0.28
#  91   -0.02   -0.24    0.13    0.24   -0.04    0.00    0.00       0.08    1.85   -0.28
#  92    0.08   -0.33    0.21    0.35   -0.05    0.00    0.00       0.25    1.80   -0.28
#  93    0.09   -0.12    0.03    0.38   -0.03    0.00    0.00       0.35    3.76   -0.28
#  94   -0.01   -0.03    0.00    0.18   -0.01    0.00    0.00       0.14    6.04   -0.28
#  95   -0.13   -0.01    0.00    0.09    0.00    0.00    0.00      -0.05    4.93   -0.07
#  96   -0.08   -0.01    0.00    0.10    0.00    0.00    0.00       0.00    5.71   -0.20
#  97   -0.12   -0.08    0.01    0.35   -0.02    0.00    0.00       0.15    4.92   -0.28
#  98   -0.33   -0.08    0.01    0.31   -0.01    0.00    0.00      -0.10    4.44   -0.15

@<TRIPOS>MOLECULE
          T529976        93
   98   103     0     0     0



@<TRIPOS>ATOM
      1 O1         11.6037   -12.4708    89.8753 O.2        1          -0.5627
      2 C1         10.5614   -11.8540    89.7678 C.2        1           0.7028
      3 N1         10.5782   -10.5673    89.3668 N.am       1          -0.7399
      4 C2         11.8522    -9.9121    89.0604 C.3        1           0.1357
      5 C3         12.0399    -8.7057    89.9825 C.3        1          -0.0854
      6 C4         10.9100    -7.7311    89.7710 C.ar       1          -0.0944
      7 C5         11.0250    -6.7357    88.8187 C.ar       1          -0.1129
      8 C6          9.9886    -5.8417    88.6247 C.ar       1          -0.1145
      9 C7          8.8371    -5.9436    89.3827 C.ar       1          -0.1130
     10 C8          8.7218    -6.9395    90.3343 C.ar       1          -0.1161
     11 C9          9.7564    -7.8361    90.5253 C.ar       1          -0.1143
     12 N2          9.3891   -12.4583    90.0444 N.am       1          -0.6332
     13 C10         8.2634   -11.6735    90.5574 C.3        1           0.1294
     14 C11         8.3154   -11.6455    92.0632 C.ar       1          -0.1075
     15 C12         9.3308   -12.2988    92.7323 C.ar       1          -0.1386
     16 C13         9.3798   -12.2737    94.1142 C.ar       1          -0.1078
     17 C14         8.4128   -11.5944    94.8335 C.ar       1          -0.1034
     18 C15         7.3936   -10.9374    94.1749 C.ar       1          -0.0922
     19 C16         7.3421   -10.9552    92.7823 C.ar       1          -0.0490
     20 C17         6.2514   -10.2464    92.0683 C.ar       1          -0.0435
     21 C18         6.0963    -8.8696    92.2186 C.ar       1          -0.0777
     22 C19         5.0806    -8.2154    91.5520 C.ar       1          -0.1523
     23 C20         4.9120    -6.7265    91.7130 C.3        1           0.0420
     24 N3          5.0293    -6.3712    93.1335 N.4        1          -0.5090
     25 H1          5.9382    -6.6456    93.4749 H          1           0.4264
     26 H2          4.9164    -5.3743    93.2413 H          1           0.4282
     27 C21         3.9876    -7.0676    93.9001 C.3        1          -0.0081
     28 C22         4.1097    -6.6976    95.3796 C.3        1          -0.0984
     29 C23         5.4672    -7.1075    95.8897 C.ar       1          -0.1134
     30 C24         5.6532    -8.3694    96.4225 C.ar       1          -0.1099
     31 C25         6.8984    -8.7454    96.8903 C.ar       1          -0.1130
     32 C26         7.9578    -7.8598    96.8249 C.ar       1          -0.1012
     33 C27         7.7720    -6.5982    96.2912 C.ar       1          -0.1135
     34 C28         6.5278    -6.2237    95.8194 C.ar       1          -0.1103
     35 C29         4.2170    -8.9237    90.7355 C.ar       1          -0.0834
     36 C30         4.3659   -10.2902    90.5831 C.ar       1          -0.1049
     37 C31         5.3821   -10.9538    91.2409 C.ar       1          -0.0887
     38 C32         9.2403   -13.9002    89.8322 C.3        1           0.1576
     39 C33        10.1407   -14.3433    88.6753 C.3        1          -0.1833
     40 C34         9.6875   -13.6495    87.3890 C.3        1          -0.0112
     41 N4          8.2964   -14.0147    87.0958 N.4        1          -0.3750
     42 H3          8.2204   -15.0187    87.0285 H          1           0.4203
     43 C35         7.8905   -13.4078    85.8212 C.3        1           0.0405
     44 C36         8.4184   -14.2373    84.6791 C.ar       1          -0.1571
     45 C37         9.6669   -13.9696    84.1497 C.ar       1          -0.0909
     46 C38        10.1512   -14.7305    83.1022 C.ar       1          -0.1090
     47 C39         9.3871   -15.7595    82.5843 C.ar       1          -0.0836
     48 C40         8.1388   -16.0279    83.1143 C.ar       1          -0.1149
     49 C41         7.6565   -15.2697    84.1647 C.ar       1          -0.0987
     50 C42         7.4177   -13.5298    88.1670 C.3        1          -0.0483
     51 C43         7.7838   -14.2190    89.4833 C.3        1          -0.1574
     52 H4          9.7467   -10.0752    89.2811 H          1           0.3979
     53 H5         12.6693   -10.6169    89.2133 H          1           0.0767
     54 H6         11.8491    -9.5790    88.0225 H          1           0.0744
     55 H7         12.0431    -9.0386    91.0203 H          1           0.0761
     56 H8         12.9878    -8.2181    89.7544 H          1           0.0775
     57 H9         11.9247    -6.6562    88.2265 H          1           0.1212
     58 H10        10.0786    -5.0637    87.8812 H          1           0.1263
     59 H11         8.0277    -5.2448    89.2315 H          1           0.1265
     60 H12         7.8223    -7.0188    90.9267 H          1           0.1253
     61 H13         9.6649    -8.6164    91.2663 H          1           0.1190
     62 H14         8.3248   -10.6556    90.1726 H          1           0.1091
     63 H15         7.3266   -12.1280    90.2346 H          1           0.0972
     64 H16        10.0881   -12.8307    92.1757 H          1           0.1388
     65 H17        10.1755   -12.7868    94.6337 H          1           0.1348
     66 H18         8.4557   -11.5783    95.9127 H          1           0.1372
     67 H19         6.6390   -10.4076    94.7374 H          1           0.1318
     68 H20         6.7697    -8.3157    92.8560 H          1           0.1364
     69 H21         5.6850    -6.2097    91.1441 H          1           0.1426
     70 H22         3.9301    -6.4301    91.3441 H          1           0.1406
     71 H23         3.0055    -6.7711    93.5313 H          1           0.1358
     72 H24         4.1095    -8.1445    93.7835 H          1           0.1350
     73 H25         3.9878    -5.6207    95.4961 H          1           0.0945
     74 H26         3.3366    -7.2143    95.9484 H          1           0.0954
     75 H27         4.8256    -9.0614    96.4736 H          1           0.1240
     76 H28         7.0436    -9.7311    97.3072 H          1           0.1308
     77 H29         8.9305    -8.1533    97.1910 H          1           0.1314
     78 H30         8.5995    -5.9061    96.2405 H          1           0.1304
     79 H31         6.3835    -5.2393    95.3991 H          1           0.1232
     80 H32         3.4234    -8.4078    90.2156 H          1           0.1381
     81 H33         3.6886   -10.8383    89.9452 H          1           0.1418
     82 H34         5.5005   -12.0202    91.1173 H          1           0.1283
     83 H35         9.5228   -14.4334    90.7400 H          1           0.1047
     84 H36        11.1732   -14.0693    88.8923 H          1           0.1696
     85 H37        10.0687   -15.4236    88.5511 H          1           0.0986
     86 H38         9.7603   -12.5690    87.5142 H          1           0.1222
     87 H39        10.3266   -13.9624    86.5634 H          1           0.1346
     88 H40         6.8025   -13.3672    85.7682 H          1           0.1285
     89 H41         8.2955   -12.3980    85.7543 H          1           0.1392
     90 H42        10.2640   -13.1655    84.5542 H          1           0.1332
     91 H43        11.1263   -14.5208    82.6880 H          1           0.1384
     92 H44         9.7651   -16.3535    81.7653 H          1           0.1364
     93 H45         7.5418   -16.8316    82.7096 H          1           0.1323
     94 H46         6.6829   -15.4817    84.5813 H          1           0.1241
     95 H47         7.5389   -12.4520    88.2757 H          1           0.1481
     96 H48         6.3812   -13.7545    87.9157 H          1           0.1297
     97 H49         7.6626   -15.2968    89.3757 H          1           0.1106
     98 H50         7.1314   -13.8563    90.2776 H          1           0.1101
@<TRIPOS>BOND
     1    1    2 2
     2    2    3 am
     3    2   12 am
     4    3    4 1
     5    3   52 1
     6    4    5 1
     7    4   53 1
     8    4   54 1
     9    5    6 1
    10    5   55 1
    11    5   56 1
    12    6   11 ar
    13    6    7 ar
    14    7    8 ar
    15    7   57 1
    16    8    9 ar
    17    8   58 1
    18    9   10 ar
    19    9   59 1
    20   10   11 ar
    21   10   60 1
    22   11   61 1
    23   12   13 1
    24   12   38 1
    25   13   14 1
    26   13   62 1
    27   13   63 1
    28   14   19 ar
    29   14   15 ar
    30   15   16 ar
    31   15   64 1
    32   16   17 ar
    33   16   65 1
    34   17   18 ar
    35   17   66 1
    36   18   19 ar
    37   18   67 1
    38   19   20 1
    39   20   37 ar
    40   20   21 ar
    41   21   22 ar
    42   21   68 1
    43   22   23 1
    44   22   35 ar
    45   23   24 1
    46   23   69 1
    47   23   70 1
    48   24   25 1
    49   24   26 1
    50   24   27 1
    51   27   28 1
    52   27   71 1
    53   27   72 1
    54   28   29 1
    55   28   73 1
    56   28   74 1
    57   29   34 ar
    58   29   30 ar
    59   30   31 ar
    60   30   75 1
    61   31   32 ar
    62   31   76 1
    63   32   33 ar
    64   32   77 1
    65   33   34 ar
    66   33   78 1
    67   34   79 1
    68   35   36 ar
    69   35   80 1
    70   36   37 ar
    71   36   81 1
    72   37   82 1
    73   38   51 1
    74   38   39 1
    75   38   83 1
    76   39   40 1
    77   39   84 1
    78   39   85 1
    79   40   41 1
    80   40   86 1
    81   40   87 1
    82   41   42 1
    83   41   43 1
    84   41   50 1
    85   43   44 1
    86   43   88 1
    87   43   89 1
    88   44   49 ar
    89   44   45 ar
    90   45   46 ar
    91   45   90 1
    92   46   47 ar
    93   46   91 1
    94   47   48 ar
    95   47   92 1
    96   48   49 ar
    97   48   93 1
    98   49   94 1
    99   50   51 1
   100   50   95 1
   101   50   96 1
   102   51   97 1
   103   51   98 1
##########                 Name:              T526693
##########          Protonation:                   98
##########               SMILES:   1cc(cc(c1)Cl)/[NH+]=C(/N2CCC[NH+](CC2)CCCCCNC(=O)/C=C/c3ccc(c(c3)Cl)Cl)\[S-]
##########            Long Name:   orophenyl)prop-2-enoyl]amino]pentyl]-1,4-diazepan-4-ium-1-yl]methanethiolate
##########          FlexRecCode: 1
##########               Number:                  303
##########   Ligand Source File: /raidb/db2/rgc/tcams/tcams-0000197.db2.gz
##########           GlobalRank: 441
##########                 Rank:                    1
##########               Setnum:                   60
##########             Matchnum:                 4533
##########                Cloud:                    1
##########        Electrostatic:           -35.325886
##########        Van der Waals:           -30.418571
##########  Ligand Polar Desolv:             6.527121
########## Ligand Apolar Desolv:            -4.665569
##########      Internal Energy:             0.000000
##########      Receptor Energy: 0.0
########## Receptor Desolvation:             0.000000
########## Receptor Hydrophobic:             0.000000
##########         Total Energy: -63.88
##########        Ligand Charge:             1.000000
##########            Arbitrary:    +999.9990
##########     heavy atom count:   35
##########           pose count:    1
##########        Ligand Energy:             0.000000
# num electro vdwattr vdwrepu polsolv apolsol rdesolv rhydroe totalscore fullpol fullapo
#   1    2.58   -4.76    3.87   -3.32   -0.37    0.00    0.00      -2.01   -7.76   -0.87
#   2   -8.64   -1.11    0.08    3.55   -0.66    0.00    0.00      -6.79    9.72   -1.81
#   3   11.59   -1.10    0.09   -3.94    0.40    0.00    0.00       7.03  -10.16    1.02
#   4   -9.88   -0.02    0.00    2.55    0.12    0.00    0.00      -7.23    8.83    0.43
#   5   -1.63   -1.16    0.08    0.67   -0.24    0.00    0.00      -2.28    1.77   -0.64
#   6    0.69   -1.38    0.29   -0.42   -0.15    0.00    0.00      -0.96   -1.25   -0.45
#   7    0.11   -1.52    0.24   -0.16   -0.11    0.00    0.00      -1.44   -0.44   -0.30
#   8    0.04   -5.34    4.12   -0.21   -0.38    0.00    0.00      -1.77   -0.56   -0.99
#   9    0.76   -1.50    0.26   -0.40   -0.19    0.00    0.00      -1.07   -0.98   -0.46
#  10    1.16   -1.70    0.35   -0.46   -0.23    0.00    0.00      -0.88   -0.95   -0.47
#  11    1.11   -1.53    0.16   -0.36   -0.18    0.00    0.00      -0.80   -0.75   -0.37
#  12   14.42   -1.21    0.10   -4.78    0.45    0.00    0.00       8.98  -12.68    1.20
#  13   -2.91   -1.04    0.16    0.68   -0.19    0.00    0.00      -3.30    1.61   -0.46
#  14    5.48   -1.08    0.28   -1.60   -0.09    0.00    0.00       3.00   -4.46   -0.24
#  15    0.39   -0.91    0.17   -0.17   -0.12    0.00    0.00      -0.65   -0.51   -0.36
#  16    7.48   -0.58    0.02   -3.21    0.05    0.00    0.00       3.75  -11.69    0.18
#  17   -6.58   -0.01    0.00    1.52    0.04    0.00    0.00      -5.04   17.56    0.46
#  18    0.36   -0.49    0.02   -0.03   -0.10    0.00    0.00      -0.23   -0.09   -0.34
#  19    1.23   -0.35    0.02   -0.83   -0.04    0.00    0.00       0.03   -4.24   -0.20
#  20    0.63   -0.52    0.06   -0.77   -0.06    0.00    0.00      -0.64   -3.07   -0.22
#  21    0.22   -0.28    0.01   -0.47   -0.04    0.00    0.00      -0.56   -2.46   -0.22
#  22   -0.18   -0.47    0.04    0.37   -0.11    0.00    0.00      -0.34    1.43   -0.42
#  23    0.84   -0.48    0.03   -2.00    0.48    0.00    0.00      -1.12   -9.61    2.33
#  24   -0.60   -0.43    0.03    0.80   -0.12    0.00    0.00      -0.31    4.47   -0.65
#  25    0.69   -0.43    0.03   -0.27    0.07    0.00    0.00       0.10   -1.44    0.39
#  26    0.18   -0.39    0.05   -0.28   -0.06    0.00    0.00      -0.51   -1.96   -0.43
#  27    0.01   -1.15    0.69   -0.09   -0.09    0.00    0.00      -0.62   -0.44   -0.44
#  28    0.05   -0.84    0.31   -0.07   -0.07    0.00    0.00      -0.63   -0.42   -0.41
#  29    0.05   -0.30    0.03   -0.08   -0.04    0.00    0.00      -0.33   -0.75   -0.44
#  30    0.05   -0.17    0.01   -0.06   -0.03    0.00    0.00      -0.21   -0.87   -0.46
#  31    0.01   -0.26    0.01   -0.03   -0.03    0.00    0.00      -0.30   -0.31   -0.29
#  32    0.01   -0.40    0.01   -0.02   -0.08    0.00    0.00      -0.48   -0.27   -0.95
#  33    0.02   -0.65    0.05   -0.06   -0.07    0.00    0.00      -0.70   -0.27   -0.30
#  34    0.03   -3.82    2.61   -0.07   -0.31    0.00    0.00      -1.56   -0.21   -0.95
#  35    0.06   -1.16    0.35   -0.14   -0.11    0.00    0.00      -1.01   -0.58   -0.45
#  36    1.08   -0.79    0.07   -0.10   -0.15    0.00    0.00       0.12   -0.24   -0.39
#  37   -2.44   -1.22    0.20    0.81   -0.18    0.00    0.00      -2.83    1.78   -0.40
#  38   -0.39   -0.32    0.15    0.35   -0.05    0.00    0.00      -0.27    1.83   -0.28
#  39   -1.07   -0.26    0.02    0.25   -0.08    0.00    0.00      -1.14    0.89   -0.28
#  40   -2.25   -0.36    0.05    0.61   -0.11    0.00    0.00      -2.06    1.55   -0.28
#  41   -2.43   -0.37    0.05    0.76   -0.08    0.00    0.00      -2.06    1.70   -0.17
#  42   -3.55   -0.48    0.07    1.11   -0.09    0.00    0.00      -2.94    2.40   -0.20
#  43   -3.99   -0.37    0.14    0.75   -0.08    0.00    0.00      -3.54    2.70   -0.28
#  44   -6.79   -1.04    1.33    1.74   -0.10    0.00    0.00      -4.86    4.75   -0.28
#  45   -2.79   -0.16    0.02    0.80   -0.04    0.00    0.00      -2.18    5.30   -0.25
#  46   -3.50   -0.44    0.10    0.99   -0.08    0.00    0.00      -2.92    2.91   -0.24
#  47   -2.86   -0.44    0.23    1.73   -0.05    0.00    0.00      -1.40    6.41   -0.20
#  48   -3.13   -0.21    0.02    1.16   -0.06    0.00    0.00      -2.22    5.22   -0.26
#  49   -2.61   -0.17    0.01    0.77   -0.05    0.00    0.00      -2.06    3.96   -0.28
#  50   -0.73   -0.14    0.02    0.50   -0.03    0.00    0.00      -0.38    3.89   -0.22
#  51   -0.42   -0.07    0.00    0.26   -0.02    0.00    0.00      -0.25    4.04   -0.28
#  52   -0.56   -0.39    0.29    0.27   -0.05    0.00    0.00      -0.44    1.42   -0.28
#  53   -0.76   -0.19    0.02    0.28   -0.06    0.00    0.00      -0.71    1.34   -0.28
#  54   -0.11   -0.08    0.00    0.18   -0.02    0.00    0.00      -0.02    2.25   -0.28
#  55   -0.12   -0.05    0.00    0.11   -0.01    0.00    0.00      -0.07    2.22   -0.28
#  56   -0.15   -0.24    0.07    0.07   -0.06    0.00    0.00      -0.31    0.32   -0.28
#  57   -0.09   -0.24    0.05    0.08   -0.07    0.00    0.00      -0.27    0.32   -0.28
#  58   -0.40   -0.01    0.00    0.79    0.05    0.00    0.00       0.44    8.12    0.56
#  59   -0.10   -0.03    0.00    0.12   -0.01    0.00    0.00      -0.01    3.51   -0.21
#  60   -0.11   -0.46    0.48    0.12   -0.06    0.00    0.00      -0.03    0.52   -0.26
#  61   -0.08   -0.03    0.00    0.13   -0.01    0.00    0.00       0.01    3.59   -0.21
#  62   -0.06   -0.01    0.00    0.03    0.00    0.00    0.00      -0.04    2.17   -0.28
#  63   -0.15   -0.49    0.28    0.25   -0.08    0.00    0.00      -0.19    0.88   -0.28
#  64   -4.16   -0.38    0.09    0.92   -0.10    0.00    0.00      -3.62    2.66   -0.28
#  65   -3.56   -0.24    0.03    1.66   -0.07    0.00    0.00      -2.18    6.32   -0.26
#  66   -2.64   -0.50    0.13    2.49   -0.13    0.00    0.00      -0.63    5.57   -0.28
#  67   -4.23   -0.81    0.49    0.67   -0.09    0.00    0.00      -3.97    1.59   -0.21

@<TRIPOS>MOLECULE
          T526693        98
   67    69     0     0     0



@<TRIPOS>ATOM
      1 S1          3.7007    -8.0300    96.7689 S.3        1          -0.5124
      2 C1          4.6237    -6.7707    96.2055 C.cat      1           0.5141
      3 N1          5.9877    -6.8737    96.1944 N.pl3      1          -0.6307
      4 H1          6.5303    -6.1047    95.9595 H          1           0.4066
      5 C2          6.6001    -8.0881    96.5218 C.ar       1           0.1294
      6 C3          6.3396    -9.2244    95.7670 C.ar       1          -0.1152
      7 C4          6.9465   -10.4225    96.0930 C.ar       1          -0.0253
      8 Cl1         6.6223   -11.8438    95.1503 Cl         1          -0.0525
      9 C5          7.8133   -10.4898    97.1702 C.ar       1          -0.0979
     10 C6          8.0740    -9.3598    97.9226 C.ar       1          -0.0926
     11 C7          7.4743    -8.1584    97.5985 C.ar       1          -0.0772
     12 N2          4.0206    -5.6329    95.7474 N.pl3      1          -0.5939
     13 C8          4.6473    -4.8072    94.6794 C.3        1           0.0831
     14 C9          4.0226    -4.9237    93.3550 C.3        1          -0.1533
     15 C10         2.5082    -4.6356    93.4770 C.3        1          -0.0153
     16 N3          1.7643    -5.7337    94.0126 N.4        1          -0.3671
     17 H2          2.2524    -6.5861    93.7813 H          1           0.4173
     18 C11         0.4548    -5.7663    93.3476 C.3        1          -0.0199
     19 C12         0.5961    -6.4281    91.9754 C.3        1          -0.1475
     20 C13        -0.7678    -6.4621    91.2828 C.3        1          -0.1157
     21 C14        -0.6266    -7.1238    89.9105 C.3        1          -0.1322
     22 C15        -1.9903    -7.1578    89.2180 C.3        1           0.1173
     23 N4         -1.8551    -7.7913    87.9040 N.am       1          -0.7315
     24 C16        -2.5523    -8.9094    87.6200 C.2        1           0.5492
     25 O1         -3.2942    -9.3925    88.4551 O.2        1          -0.5371
     26 C17        -2.4170    -9.5425    86.3070 C.2        1          -0.2148
     27 C18        -2.1369    -8.7919    85.2223 C.2        1          -0.0081
     28 C19        -2.0010    -9.4284    83.9024 C.ar       1          -0.0650
     29 C20        -2.5527   -10.6930    83.6719 C.ar       1          -0.0859
     30 C21        -2.4222   -11.2834    82.4334 C.ar       1          -0.0994
     31 C22        -1.7465   -10.6275    81.4171 C.ar       1          -0.0207
     32 Cl2        -1.5878   -11.3787    79.8602 Cl         1          -0.0366
     33 C23        -1.1970    -9.3740    81.6377 C.ar       1          -0.0338
     34 Cl3        -0.3529    -8.5607    80.3572 Cl         1          -0.0359
     35 C24        -1.3247    -8.7691    82.8712 C.ar       1          -0.0728
     36 C25         1.5314    -5.7164    95.4960 C.3        1          -0.0431
     37 C26         2.7661    -5.2006    96.2731 C.3        1           0.0967
     38 H3          5.6630    -9.1720    94.9268 H          1           0.1358
     39 H4          8.2864   -11.4271    97.4235 H          1           0.1415
     40 H5          8.7508    -9.4155    98.7625 H          1           0.1423
     41 H6          7.6819    -7.2753    98.1846 H          1           0.1430
     42 H7          4.6067    -3.7621    94.9864 H          1           0.0934
     43 H8          5.6939    -5.0987    94.5912 H          1           0.1007
     44 H9          4.4765    -4.2043    92.6734 H          1           0.1299
     45 H10         4.1717    -5.9323    92.9692 H          1           0.0972
     46 H11         2.3685    -3.7701    94.1247 H          1           0.1272
     47 H12         2.1171    -4.3985    92.4876 H          1           0.1428
     48 H13        -0.2472    -6.3370    93.9556 H          1           0.1369
     49 H14         0.0847    -4.7487    93.2240 H          1           0.1318
     50 H15         1.2981    -5.8574    91.3674 H          1           0.0869
     51 H16         0.9662    -7.4458    92.0991 H          1           0.0902
     52 H17        -1.4698    -7.0327    91.8907 H          1           0.0808
     53 H18        -1.1379    -5.4444    91.1591 H          1           0.0790
     54 H19         0.0756    -6.5533    89.3026 H          1           0.0737
     55 H20        -0.2564    -8.1415    90.0343 H          1           0.0751
     56 H21        -2.6925    -7.7284    89.8260 H          1           0.0708
     57 H22        -2.3606    -6.1401    89.0942 H          1           0.0702
     58 H23        -1.2640    -7.4063    87.2384 H          1           0.4022
     59 H24        -2.5417   -10.6106    86.2071 H          1           0.1322
     60 H25        -2.0123    -7.7238    85.3222 H          1           0.1427
     61 H26        -3.0795   -11.2058    84.4631 H          1           0.1427
     62 H27        -2.8475   -12.2598    82.2547 H          1           0.1485
     63 H28        -0.9002    -7.7906    83.0408 H          1           0.1504
     64 H29         0.6806    -5.0706    95.7126 H          1           0.1364
     65 H30         1.3017    -6.7284    95.8296 H          1           0.1525
     66 H31         2.6872    -5.5415    97.3054 H          1           0.1071
     67 H32         2.7461    -4.1108    96.2694 H          1           0.1552
@<TRIPOS>BOND
     1    1    2 1
     2    2    3 2
     3    2   12 1
     4    3    4 1
     5    3    5 1
     6    5   11 ar
     7    5    6 ar
     8    6    7 ar
     9    6   38 1
    10    7    8 1
    11    7    9 ar
    12    9   10 ar
    13    9   39 1
    14   10   11 ar
    15   10   40 1
    16   11   41 1
    17   12   37 1
    18   12   13 1
    19   13   14 1
    20   13   42 1
    21   13   43 1
    22   14   15 1
    23   14   44 1
    24   14   45 1
    25   15   16 1
    26   15   46 1
    27   15   47 1
    28   16   17 1
    29   16   18 1
    30   16   36 1
    31   18   19 1
    32   18   48 1
    33   18   49 1
    34   19   20 1
    35   19   50 1
    36   19   51 1
    37   20   21 1
    38   20   52 1
    39   20   53 1
    40   21   22 1
    41   21   54 1
    42   21   55 1
    43   22   23 1
    44   22   56 1
    45   22   57 1
    46   23   24 am
    47   23   58 1
    48   24   25 2
    49   24   26 1
    50   26   27 2
    51   26   59 1
    52   27   28 1
    53   27   60 1
    54   28   35 ar
    55   28   29 ar
    56   29   30 ar
    57   29   61 1
    58   30   31 ar
    59   30   62 1
    60   31   32 1
    61   31   33 ar
    62   33   34 1
    63   33   35 ar
    64   35   63 1
    65   36   37 1
    66   36   64 1
    67   36   65 1
    68   37   66 1
    69   37   67 1
##########                 Name:              T536963
##########          Protonation:                   48
##########               SMILES:   C=CCOc1c(cc(cc1)C[NH2+][C@H]2CC[NH+](CC2)Cc3ccccc3)Br
##########            Long Name:   (4-allyloxy-3-bromo-phenyl)methyl-(1-benzylpiperidin-1-ium-4-yl)ammonium
##########          FlexRecCode: 1
##########               Number:                   31
##########   Ligand Source File: /raidb/db2/rgc/tcams/tcams-0001691.db2.gz
##########           GlobalRank: 441
##########                 Rank:                    1
##########               Setnum:                  115
##########             Matchnum:                 5686
##########                Cloud:                    1
##########        Electrostatic:           -56.300278
##########        Van der Waals:           -22.983679
##########  Ligand Polar Desolv:            20.289055
########## Ligand Apolar Desolv:            -4.881062
##########      Internal Energy:             0.000000
##########      Receptor Energy: 0.0
########## Receptor Desolvation:             0.000000
########## Receptor Hydrophobic:             0.000000
##########         Total Energy: -63.88
##########        Ligand Charge:             2.000000
##########            Arbitrary:    +999.9990
##########     heavy atom count:   26
##########           pose count:    1
##########        Ligand Energy:             0.000000
# num electro vdwattr vdwrepu polsolv apolsol rdesolv rhydroe totalscore fullpol fullapo
#   1   -0.03   -2.10    0.57   -0.61   -0.23    0.00    0.00      -2.40   -2.82   -1.08
#   2    0.86   -1.09    0.19   -1.23   -0.08    0.00    0.00      -1.36   -4.63   -0.30
#   3    0.25   -1.01    0.16   -0.29   -0.12    0.00    0.00      -1.01   -1.11   -0.44
#   4    3.47   -1.11    0.15   -1.62   -0.12    0.00    0.00       0.76   -5.04   -0.37
#   5   -1.28   -0.81    0.08    1.34   -0.15    0.00    0.00      -0.81    3.50   -0.40
#   6   14.67   -0.81    0.12   -7.91    0.17    0.00    0.00       6.24  -27.67    0.60
#   7  -12.71   -0.01    0.00    3.53    0.08    0.00    0.00      -9.12   25.32    0.56
#   8   -8.10   -0.01    0.00    2.69    0.03    0.00    0.00      -5.38   26.56    0.34
#   9   -0.58   -1.42    0.75    1.25   -0.12    0.00    0.00      -0.11    2.92   -0.27
#  10    5.39   -1.64    0.42   -4.48   -0.11    0.00    0.00      -0.42   -9.34   -0.22
#  11    0.64   -0.99    0.12   -0.75   -0.16    0.00    0.00      -1.14   -1.80   -0.37
#  12    9.55   -1.03    0.11   -6.97    0.10    0.00    0.00       1.76  -19.22    0.27
#  13  -11.22   -0.03    0.00    7.75    0.18    0.00    0.00      -3.32   22.91    0.54
#  14   -1.09   -0.71    0.06    1.11   -0.13    0.00    0.00      -0.75    3.16   -0.36
#  15    3.95   -1.15    0.09   -1.43   -0.12    0.00    0.00       1.34   -3.80   -0.33
#  16    2.22   -1.83    0.30   -1.52   -0.22    0.00    0.00      -1.05   -3.12   -0.45
#  17    2.59   -1.69    0.14   -2.63   -0.27    0.00    0.00      -1.87   -4.52   -0.47
#  18    1.57   -2.35    1.20   -1.94   -0.23    0.00    0.00      -1.75   -4.02   -0.47
#  19    1.51   -1.56    0.38   -1.65   -0.17    0.00    0.00      -1.49   -4.55   -0.47
#  20    1.55   -1.00    0.11   -0.81   -0.11    0.00    0.00      -0.25   -2.59   -0.36
#  21    0.78   -0.64    0.06   -0.72   -0.10    0.00    0.00      -0.62   -2.48   -0.33
#  22    6.76   -1.77    0.94   -3.21   -0.10    0.00    0.00       2.62   -8.07   -0.24
#  23    0.46   -1.22    0.11    0.00   -0.17    0.00    0.00      -0.81    0.01   -0.45
#  24    1.61   -1.33    0.15   -2.53   -0.15    0.00    0.00      -2.26   -7.07   -0.42
#  25   -1.13   -1.22    0.14    0.60   -0.10    0.00    0.00      -1.71    1.81   -0.31
#  26    1.71   -1.13    0.11   -2.57    0.34    0.00    0.00      -1.54   -6.36    0.84
#  27   -0.81   -0.88    0.07    0.92   -0.05    0.00    0.00      -0.76    1.89   -0.10
#  28    1.47   -2.17    0.36   -1.59   -0.27    0.00    0.00      -2.19   -2.70   -0.46
#  29    0.79   -2.89    0.87   -1.66   -0.21    0.00    0.00      -3.10   -2.71   -0.34
#  30   -2.38   -0.13    0.01    0.81   -0.04    0.00    0.00      -1.73    6.38   -0.28
#  31   -3.33   -0.30    0.06    3.29   -0.06    0.00    0.00      -0.34   12.07   -0.22
#  32   -5.10   -0.44    0.14    3.34   -0.11    0.00    0.00      -2.17    8.52   -0.28
#  33   -9.45   -1.23    3.93    4.12   -0.12    0.00    0.00      -2.76    9.49   -0.28
#  34   -4.03   -0.84    0.70    3.34   -0.08    0.00    0.00      -0.91    8.73   -0.22
#  35   -4.94   -1.07    1.10    3.26   -0.15    0.00    0.00      -1.81    6.24   -0.28
#  36   -2.54   -0.16    0.00    1.90   -0.04    0.00    0.00      -0.83   11.81   -0.22
#  37   -4.24   -0.49    0.12    3.83   -0.12    0.00    0.00      -0.91    9.00   -0.28
#  38   -2.76   -0.14    0.01    1.46   -0.04    0.00    0.00      -1.47   10.39   -0.28
#  39   -4.68   -0.41    0.16    2.69   -0.09    0.00    0.00      -2.32    8.38   -0.27
#  40   -3.42   -0.72    0.51    2.62   -0.12    0.00    0.00      -1.13    6.27   -0.28
#  41   -3.35   -0.40    0.04    0.59   -0.12    0.00    0.00      -3.24    1.39   -0.28
#  42   -3.23   -1.80    7.84    0.21   -0.11    0.00    0.00       2.92    0.53   -0.28
#  43   -0.93   -0.32    0.10    0.59   -0.08    0.00    0.00      -0.63    2.14   -0.28
#  44   -1.28   -0.11    0.01    0.98   -0.03    0.00    0.00      -0.45    8.47   -0.28
#  45   -2.28   -0.10    0.00    1.04   -0.02    0.00    0.00      -1.36   11.32   -0.23
#  46   -2.90   -0.24    0.05    0.91   -0.04    0.00    0.00      -2.22    4.58   -0.20
#  47   -6.17   -1.16    1.85    2.48   -0.13    0.00    0.00      -3.13    5.44   -0.28
#  48   -6.56   -0.78    0.81    1.99   -0.09    0.00    0.00      -4.62    6.44   -0.28
#  49   -2.00   -0.24    0.01    3.27   -0.08    0.00    0.00       0.97   12.03   -0.28
#  50   -1.23   -0.34    0.08    1.06   -0.06    0.00    0.00      -0.48    4.04   -0.22
#  51   -0.91   -0.35    0.06    0.61   -0.08    0.00    0.00      -0.67    1.89   -0.25
#  52   -0.77   -0.24    0.02    0.64   -0.07    0.00    0.00      -0.41    2.53   -0.27
#  53   -1.43   -0.61    0.22    0.54   -0.16    0.00    0.00      -1.44    0.96   -0.28
#  54   -0.80   -0.41    0.10    0.99   -0.13    0.00    0.00      -0.25    2.14   -0.27
#  55   -0.44   -1.13    1.08    0.67   -0.18    0.00    0.00       0.00    1.07   -0.28

@<TRIPOS>MOLECULE
          T536963        48
   55    57     0     0     0



@<TRIPOS>ATOM
      1 Br1         6.9559   -11.0511    92.7139 Br         1           0.0054
      2 C1          6.9897    -9.9708    94.2656 C.ar       1          -0.1346
      3 C2          6.7048    -8.6210    94.1754 C.ar       1          -0.0207
      4 C3          6.7294    -7.8311    95.3097 C.ar       1          -0.2200
      5 C4          6.4184    -6.3600    95.2085 C.3        1           0.0487
      6 N1          5.2324    -6.1672    94.3635 N.4        1          -0.5157
      7 H1          5.4121    -6.5370    93.4421 H          1           0.4384
      8 H2          4.4462    -6.6500    94.7723 H          1           0.4121
      9 C5          4.9292    -4.7333    94.2651 C.3        1           0.0143
     10 C6          4.1779    -4.2813    95.5207 C.3        1          -0.1693
     11 C7          2.8401    -5.0200    95.6017 C.3        1          -0.0248
     12 N2          2.0360    -4.7152    94.4122 N.4        1          -0.3854
     13 H3          1.9103    -3.7166    94.3392 H          1           0.4338
     14 C8          0.7240    -5.3651    94.5304 C.3        1           0.0442
     15 C9         -0.2562    -4.6896    93.6062 C.ar       1          -0.1745
     16 C10        -1.0004    -3.6142    94.0543 C.ar       1          -0.0904
     17 C11        -1.8995    -2.9947    93.2067 C.ar       1          -0.1084
     18 C12        -2.0541    -3.4500    91.9107 C.ar       1          -0.0747
     19 C13        -1.3093    -4.5246    91.4623 C.ar       1          -0.1108
     20 C14        -0.4071    -5.1417    92.3086 C.ar       1          -0.1019
     21 C15         2.7175    -5.2102    93.2101 C.3        1          -0.0327
     22 C16         4.0504    -4.4788    93.0370 C.3        1          -0.1655
     23 C17         7.0386    -8.3884    96.5368 C.ar       1          -0.0374
     24 C18         7.3245    -9.7367    96.6325 C.ar       1          -0.2039
     25 C19         7.2949   -10.5332    95.4972 C.ar       1           0.2059
     26 O1          7.5695   -11.8611    95.5899 O.3        1          -0.2828
     27 C20         8.8571   -12.2238    96.0924 C.3        1           0.0858
     28 C21         8.6942   -13.0516    97.3410 C.2        1          -0.1792
     29 C22         9.2051   -12.6361    98.4736 C.2        1          -0.1447
     30 H4          6.4630    -8.1834    93.2181 H          1           0.1487
     31 H5          6.2244    -5.9604    96.2039 H          1           0.1411
     32 H6          7.2678    -5.8385    94.7671 H          1           0.1491
     33 H7          5.8576    -4.1699    94.1719 H          1           0.1733
     34 H8          4.7742    -4.5102    96.4038 H          1           0.1391
     35 H9          3.9981    -3.2073    95.4706 H          1           0.1399
     36 H10         3.0211    -6.0936    95.6520 H          1           0.1224
     37 H11         2.3029    -4.7007    96.4946 H          1           0.1602
     38 H12         0.8136    -6.4169    94.2589 H          1           0.1371
     39 H13         0.3695    -5.2840    95.5579 H          1           0.1455
     40 H14        -0.8797    -3.2585    95.0668 H          1           0.1330
     41 H15        -2.4814    -2.1550    93.5570 H          1           0.1408
     42 H16        -2.7570    -2.9663    91.2485 H          1           0.1409
     43 H17        -1.4303    -4.8808    90.4498 H          1           0.1393
     44 H18         0.1776    -5.9789    91.9571 H          1           0.1282
     45 H19         2.9010    -6.2798    93.3114 H          1           0.1228
     46 H20         2.0894    -5.0312    92.3373 H          1           0.1598
     47 H21         3.8680    -3.4090    92.9353 H          1           0.1389
     48 H22         4.5556    -4.8490    92.1449 H          1           0.1388
     49 H23         7.0568    -7.7691    97.4213 H          1           0.1366
     50 H24         7.5665   -10.1709    97.5912 H          1           0.1509
     51 H25         9.3910   -12.8034    95.3393 H          1           0.0771
     52 H26         9.4233   -11.3221    96.3254 H          1           0.0794
     53 H27         8.1562   -13.9871    97.3024 H          1           0.1263
     54 H28         9.7431   -11.7004    98.5123 H          1           0.1022
     55 H29         9.0883   -13.2293    99.3685 H          1           0.1175
@<TRIPOS>BOND
     1    1    2 1
     2    2   25 ar
     3    2    3 ar
     4    3    4 ar
     5    3   30 1
     6    4    5 1
     7    4   23 ar
     8    5    6 1
     9    5   31 1
    10    5   32 1
    11    6    7 1
    12    6    8 1
    13    6    9 1
    14    9   22 1
    15    9   10 1
    16    9   33 1
    17   10   11 1
    18   10   34 1
    19   10   35 1
    20   11   12 1
    21   11   36 1
    22   11   37 1
    23   12   13 1
    24   12   14 1
    25   12   21 1
    26   14   15 1
    27   14   38 1
    28   14   39 1
    29   15   20 ar
    30   15   16 ar
    31   16   17 ar
    32   16   40 1
    33   17   18 ar
    34   17   41 1
    35   18   19 ar
    36   18   42 1
    37   19   20 ar
    38   19   43 1
    39   20   44 1
    40   21   22 1
    41   21   45 1
    42   21   46 1
    43   22   47 1
    44   22   48 1
    45   23   24 ar
    46   23   49 1
    47   24   25 ar
    48   24   50 1
    49   25   26 1
    50   26   27 1
    51   27   28 1
    52   27   51 1
    53   27   52 1
    54   28   29 2
    55   28   53 1
    56   29   54 1
    57   29   55 1
##########                 Name:              T541983
##########          Protonation:                   16
##########               SMILES:   ](NC(=O)[C@@H]1[NH2+][C@@]2(c3[nH]c4c(c3C1)cc(cc4)F)CCN(CC2)Cc5ccccc5)CC(C)C
##########            Long Name:   ro[2,3,4,9-tetrahydropyrido[3,4-b]indol-2-ium-1,4'-piperidine]-3-carboxamide
##########          FlexRecCode: 1
##########               Number:                  212
##########   Ligand Source File: /raidb/db2/rgc/tcams/tcams-0002173.db2.gz
##########           GlobalRank: 441
##########                 Rank:                    1
##########               Setnum:                   73
##########             Matchnum:                 1512
##########                Cloud:                    1
##########        Electrostatic:           -46.624470
##########        Van der Waals:           -21.615221
##########  Ligand Polar Desolv:             7.321494
########## Ligand Apolar Desolv:            -2.960576
##########      Internal Energy:             0.000000
##########      Receptor Energy: 0.0
########## Receptor Desolvation:             0.000000
########## Receptor Hydrophobic:             0.000000
##########         Total Energy: -63.88
##########        Ligand Charge:             1.000000
##########            Arbitrary:    +999.9990
##########     heavy atom count:   35
##########           pose count:    1
##########        Ligand Energy:             0.000000
# num electro vdwattr vdwrepu polsolv apolsol rdesolv rhydroe totalscore fullpol fullapo
#   1    2.40   -0.58    0.06   -0.58   -0.05    0.00    0.00       1.25   -1.98   -0.18
#   2    1.86   -0.86    0.10   -0.47   -0.07    0.00    0.00       0.56   -1.21   -0.19
#   3    3.31   -1.15    0.14   -0.96   -0.09    0.00    0.00       1.25   -1.96   -0.18
#   4    3.41   -1.15    0.25   -0.81   -0.08    0.00    0.00       1.63   -1.92   -0.18
#   5   -3.39   -0.72    0.06    1.01   -0.09    0.00    0.00      -3.14    2.74   -0.24
#   6    4.84   -1.35    0.32   -1.23   -0.09    0.00    0.00       2.49   -2.52   -0.19
#   7   17.39   -1.02    0.06   -5.25    0.60    0.00    0.00      11.77  -15.60    1.77
#   8  -12.22   -0.80    0.03    3.78   -0.17    0.00    0.00      -9.38   12.77   -0.59
#   9    7.86   -0.70    0.04   -3.38    0.11    0.00    0.00       3.92  -11.84    0.37
#  10   -0.15   -1.08    0.50    0.51   -0.09    0.00    0.00      -0.32    1.41   -0.25
#  11    1.77   -0.92    0.16   -0.64   -0.09    0.00    0.00       0.27   -1.60   -0.23
#  12    3.11   -0.93    0.08   -0.99   -0.13    0.00    0.00       1.14   -3.37   -0.43
#  13   -0.76   -0.71    0.05    0.52   -0.14    0.00    0.00      -1.04    2.13   -0.57
#  14    3.60   -0.99    0.17   -2.69    0.22    0.00    0.00       0.31  -11.26    0.91
#  15   -0.60   -1.20    0.21    0.35   -0.23    0.00    0.00      -1.47    1.20   -0.77
#  16    0.39   -1.38    0.21   -0.42   -0.16    0.00    0.00      -1.37   -1.24   -0.48
#  17    0.78   -1.43    0.19   -0.66   -0.18    0.00    0.00      -1.30   -1.66   -0.46
#  18   -0.97   -1.60    0.31   -0.06   -0.14    0.00    0.00      -2.46   -0.14   -0.33
#  19    1.94   -1.28    0.54   -0.53   -0.25    0.00    0.00       0.41   -0.98   -0.47
#  20    1.38   -1.33    0.13   -0.51   -0.20    0.00    0.00      -0.53   -1.26   -0.48
#  21    0.86   -1.10    0.12   -0.48   -0.14    0.00    0.00      -0.75   -1.45   -0.44
#  22   -3.27   -0.43    0.05    1.14   -0.01    0.00    0.00      -2.53    5.50   -0.05
#  23    1.53   -0.28    0.01   -0.58   -0.03    0.00    0.00       0.64   -3.72   -0.20
#  24   -0.15   -0.39    0.08    0.14   -0.05    0.00    0.00      -0.37    0.98   -0.38
#  25    2.69   -0.23    0.01   -0.93    0.28    0.00    0.00       1.83  -10.56    3.18
#  26   -0.07   -0.12    0.01    0.13   -0.03    0.00    0.00      -0.09    1.56   -0.39
#  27    0.04   -0.17    0.01   -0.07   -0.02    0.00    0.00      -0.21   -0.93   -0.34
#  28    0.02   -0.47    0.12   -0.16   -0.06    0.00    0.00      -0.54   -1.24   -0.45
#  29    0.06   -0.26    0.02   -0.16   -0.05    0.00    0.00      -0.39   -1.33   -0.47
#  30    0.07   -0.09    0.00   -0.06   -0.02    0.00    0.00      -0.09   -1.30   -0.47
#  31    0.09   -0.06    0.00   -0.05   -0.02    0.00    0.00      -0.03   -1.39   -0.47
#  32    0.09   -0.07    0.00   -0.06   -0.01    0.00    0.00      -0.05   -1.39   -0.37
#  33   -0.53   -0.18    0.00    0.09   -0.04    0.00    0.00      -0.65    0.79   -0.37
#  34    2.94   -0.44    0.05   -0.72   -0.04    0.00    0.00       1.80   -3.56   -0.19
#  35   19.53   -2.17    3.40   -4.05    0.10    0.00    0.00      16.81  -14.59    0.37
#  36  -16.24   -0.03    0.00    3.42    0.12    0.00    0.00     -12.73   15.00    0.54
#  37  -27.79   -0.27    0.22    4.76    0.15    0.00    0.00     -22.92   15.48    0.50
#  38   -0.68   -0.10    0.00    0.09   -0.02    0.00    0.00      -0.71    0.94   -0.22
#  39   -1.34   -0.41    0.38    0.05   -0.06    0.00    0.00      -1.38    0.23   -0.28
#  40   -0.53   -0.16    0.01    0.07   -0.04    0.00    0.00      -0.65    0.46   -0.28
#  41   -1.06   -0.45    0.20    0.61   -0.08    0.00    0.00      -0.78    2.09   -0.27
#  42   -1.38   -0.61    0.18    0.11   -0.12    0.00    0.00      -1.82    0.24   -0.28
#  43   -1.06   -0.43    0.11    0.33   -0.10    0.00    0.00      -1.16    0.90   -0.28
#  44   -1.40   -0.26    0.01    0.12   -0.08    0.00    0.00      -1.60    0.43   -0.28
#  45   -1.82   -0.96    1.88    0.67   -0.11    0.00    0.00      -0.34    1.67   -0.28
#  46   -2.96   -0.50    0.21    0.24   -0.10    0.00    0.00      -3.11    0.66   -0.28
#  47   -2.12   -0.14    0.01    0.14   -0.03    0.00    0.00      -2.14    1.02   -0.20
#  48   -1.35   -0.29    0.03    0.44   -0.10    0.00    0.00      -1.27    1.20   -0.28
#  49   -2.17   -0.59    0.16    0.25   -0.14    0.00    0.00      -2.49    0.50   -0.28
#  50   -2.55   -1.24    3.72    0.34   -0.13    0.00    0.00       0.13    0.71   -0.28
#  51  -11.41   -0.02    0.00    3.18    0.16    0.00    0.00      -8.09   11.05    0.55
#  52   -7.75   -0.56    0.39    2.79   -0.08    0.00    0.00      -5.22    7.20   -0.21
#  53   -5.07   -0.50    0.23    1.77   -0.12    0.00    0.00      -3.69    4.13   -0.27
#  54   -2.86   -0.31    0.06    0.90   -0.07    0.00    0.00      -2.27    3.41   -0.28
#  55   -1.44   -0.01    0.00    1.28    0.05    0.00    0.00      -0.12    8.99    0.36
#  56   -0.54   -0.29    0.04    0.61   -0.07    0.00    0.00      -0.25    2.41   -0.28
#  57   -0.97   -0.28    0.03    0.28   -0.08    0.00    0.00      -1.02    0.93   -0.28
#  58   -2.43   -0.29    0.03    0.81   -0.09    0.00    0.00      -1.96    2.64   -0.28
#  59   -0.85   -0.10    0.01    0.35   -0.03    0.00    0.00      -0.63    3.64   -0.28
#  60   -1.40   -0.06    0.00    0.26   -0.02    0.00    0.00      -1.22    4.35   -0.28
#  61    0.03   -0.37    0.30    0.13   -0.03    0.00    0.00       0.06    0.80   -0.20
#  62   -0.04   -0.10    0.02    0.16   -0.02    0.00    0.00       0.02    1.91   -0.28
#  63   -0.09   -0.02    0.00    0.02   -0.01    0.00    0.00      -0.10    0.88   -0.28
#  64   -0.02   -0.07    0.01    0.10   -0.02    0.00    0.00       0.00    1.43   -0.27
#  65    0.03   -0.45    0.73    0.27   -0.05    0.00    0.00       0.53    1.70   -0.28
#  66   -0.06   -0.09    0.01    0.11   -0.03    0.00    0.00      -0.06    1.07   -0.28
#  67   -0.09   -0.01    0.00    0.02   -0.01    0.00    0.00      -0.09    0.90   -0.28
#  68   -0.10   -0.01    0.00    0.03   -0.01    0.00    0.00      -0.10    1.30   -0.28
#  69   -0.12   -0.01    0.00    0.04   -0.01    0.00    0.00      -0.09    2.07   -0.28
#  70   -0.37   -0.06    0.00    0.04   -0.01    0.00    0.00      -0.40    0.80   -0.21
#  71   -1.09   -0.03    0.00    0.04   -0.01    0.00    0.00      -1.09    1.22   -0.20
#  72   -2.72   -0.15    0.02    0.52   -0.04    0.00    0.00      -2.37    3.94   -0.27
#  73   -2.65   -0.22    0.04    0.78   -0.05    0.00    0.00      -2.10    3.74   -0.23

@<TRIPOS>MOLECULE
          T541983        16
   73    77     0     0     0



@<TRIPOS>ATOM
      1 C1         -0.2884    -5.5771    92.5219 C.3        1          -0.1545
      2 C2          0.1073    -4.2484    93.1693 C.3        1          -0.0946
      3 C3         -0.9580    -3.1942    92.8622 C.3        1          -0.1529
      4 C4          0.2207    -4.4330    94.6839 C.3        1          -0.1291
      5 C5          1.2862    -5.4872    94.9910 C.3        1           0.1365
      6 C6          1.3995    -5.6717    96.5056 C.3        1          -0.1683
      7 N1          2.5767    -5.0480    94.4546 N.am       1          -0.6920
      8 C7          3.6688    -5.8227    94.6074 C.2        1           0.5082
      9 O1          3.5833    -6.8835    95.1890 O.2        1          -0.5235
     10 C8          4.9935    -5.3720    94.0568 C.3        1           0.0042
     11 C9          6.1308    -5.8479    94.9641 C.3        1          -0.0567
     12 C10         6.2609    -7.3320    94.7429 C.2        1          -0.1592
     13 C11         5.8875    -7.9480    93.5978 C.2        1           0.0488
     14 N2          6.1362    -9.2912    93.7125 N.pl3      1          -0.5571
     15 C12         6.6788    -9.5691    94.9362 C.ar       1           0.0975
     16 C13         7.1077   -10.7600    95.5177 C.ar       1          -0.0904
     17 C14         7.6095   -10.6868    96.8053 C.ar       1          -0.1175
     18 C15         7.6911    -9.4890    97.5005 C.ar       1           0.0918
     19 F1          8.1886    -9.4925    98.7567 F          1          -0.1332
     20 C16         7.2797    -8.2899    96.9435 C.ar       1          -0.1038
     21 C17         6.7718    -8.3429    95.6412 C.ar       1          -0.0692
     22 C18         5.3070    -7.2260    92.4124 C.3        1           0.1477
     23 C19         3.9314    -7.7837    92.0535 C.3        1          -0.1367
     24 C20         4.0288    -9.2086    91.5127 C.3        1           0.0561
     25 N3          4.9204    -9.2422    90.3484 N.3        1          -0.5284
     26 C21         4.9287   -10.5718    89.7239 C.3        1           0.0957
     27 C22         3.5347   -10.9234    89.2721 C.ar       1          -0.0917
     28 C23         2.6748   -11.5811    90.1317 C.ar       1          -0.0952
     29 C24         1.3961   -11.9037    89.7174 C.ar       1          -0.1168
     30 C25         0.9771   -11.5680    88.4435 C.ar       1          -0.1112
     31 C26         1.8367   -10.9094    87.5842 C.ar       1          -0.1183
     32 C27         3.1139   -10.5832    88.0001 C.ar       1          -0.1185
     33 C28         6.2780    -8.8203    90.7126 C.3        1           0.0490
     34 C29         6.2558    -7.3810    91.2137 C.3        1          -0.1316
     35 N4          5.1909    -5.7873    92.6792 N.4        1          -0.4848
     36 H1          4.4259    -5.4235    92.1111 H          1           0.4346
     37 H2          6.0362    -5.3384    92.3216 H          1           0.4411
     38 H3          0.4706    -6.3282    92.7406 H          1           0.0530
     39 H4         -1.2486    -5.9039    92.9210 H          1           0.0606
     40 H5         -0.3691    -5.4456    91.4429 H          1           0.0575
     41 H6          1.0676    -3.9217    92.7703 H          1           0.0644
     42 H7         -0.6762    -2.2477    93.3235 H          1           0.0595
     43 H8         -1.0387    -3.0628    91.7832 H          1           0.0562
     44 H9         -1.9183    -3.5211    93.2612 H          1           0.0582
     45 H10         0.5026    -3.4865    95.1452 H          1           0.0745
     46 H11        -0.7394    -4.7598    95.0830 H          1           0.0903
     47 H12         1.0042    -6.4338    94.5297 H          1           0.1021
     48 H13         2.1585    -6.4227    96.7243 H          1           0.0629
     49 H14         1.6814    -4.7252    96.9668 H          1           0.0770
     50 H15         0.4392    -5.9986    96.9046 H          1           0.0616
     51 H16         2.6451    -4.1995    93.9894 H          1           0.4089
     52 H17         4.9975    -4.2644    94.0814 H          1           0.1675
     53 H18         7.0605    -5.3458    94.6972 H          1           0.1269
     54 H19         5.8859    -5.6464    96.0075 H          1           0.1099
     55 H20         5.9640    -9.9602    93.0337 H          1           0.4198
     56 H21         7.0532   -11.6983    94.9864 H          1           0.1463
     57 H22         7.9487   -11.5929    97.2849 H          1           0.1464
     58 H23         7.3473    -7.3603    97.4886 H          1           0.1488
     59 H24         3.2910    -7.7946    92.9384 H          1           0.1021
     60 H25         3.4685    -7.1428    91.2977 H          1           0.1091
     61 H26         4.3928    -9.8811    92.2841 H          1           0.0384
     62 H27         3.0322    -9.5417    91.2034 H          1           0.1059
     63 H28         5.5984   -10.5651    88.8640 H          1           0.0493
     64 H29         5.2734   -11.3107    90.4472 H          1           0.0944
     65 H30         3.0022   -11.8433    91.1270 H          1           0.1236
     66 H31         0.7246   -12.4182    90.3887 H          1           0.1259
     67 H32        -0.0217   -11.8207    88.1195 H          1           0.1254
     68 H33         1.5094   -10.6475    86.5889 H          1           0.1242
     69 H34         3.7842   -10.0653    87.3301 H          1           0.1160
     70 H35         6.6804    -9.4810    91.4768 H          1           0.0429
     71 H36         6.9176    -8.8835    89.8260 H          1           0.1095
     72 H37         5.9215    -6.7180    90.4130 H          1           0.1080
     73 H38         7.2609    -7.0842    91.5219 H          1           0.0969
@<TRIPOS>BOND
     1    1    2 1
     2    1   38 1
     3    1   39 1
     4    1   40 1
     5    2    3 1
     6    2    4 1
     7    2   41 1
     8    3   42 1
     9    3   43 1
    10    3   44 1
    11    4    5 1
    12    4   45 1
    13    4   46 1
    14    5    6 1
    15    5    7 1
    16    5   47 1
    17    6   48 1
    18    6   49 1
    19    6   50 1
    20    7    8 am
    21    7   51 1
    22    8    9 2
    23    8   10 1
    24   10   35 1
    25   10   11 1
    26   10   52 1
    27   11   12 1
    28   11   53 1
    29   11   54 1
    30   12   21 1
    31   12   13 2
    32   13   14 1
    33   13   22 1
    34   14   15 1
    35   14   55 1
    36   15   21 ar
    37   15   16 ar
    38   16   17 ar
    39   16   56 1
    40   17   18 ar
    41   17   57 1
    42   18   19 1
    43   18   20 ar
    44   20   21 ar
    45   20   58 1
    46   22   34 1
    47   22   23 1
    48   22   35 1
    49   23   24 1
    50   23   59 1
    51   23   60 1
    52   24   25 1
    53   24   61 1
    54   24   62 1
    55   25   26 1
    56   25   33 1
    57   26   27 1
    58   26   63 1
    59   26   64 1
    60   27   32 ar
    61   27   28 ar
    62   28   29 ar
    63   28   65 1
    64   29   30 ar
    65   29   66 1
    66   30   31 ar
    67   30   67 1
    68   31   32 ar
    69   31   68 1
    70   32   69 1
    71   33   34 1
    72   33   70 1
    73   33   71 1
    74   34   72 1
    75   34   73 1
    76   35   36 1
    77   35   37 1
##########                 Name:              T526625
##########          Protonation:                   99
##########               SMILES:   C[C@@H](Cc1ccc(cc1)OC)[NH2+]C[C@@H](c2ccc(c(c2)Cl)Cl)O
##########            Long Name:   rophenyl)-2-hydroxy-ethyl]-[(1S)-2-(4-methoxyphenyl)-1-methyl-ethyl]ammonium
##########          FlexRecCode: 1
##########               Number:                  140
##########   Ligand Source File: /raidb/db2/rgc/tcams/tcams-0000169.db2.gz
##########           GlobalRank: 442
##########                 Rank:                    1
##########               Setnum:                  175
##########             Matchnum:                 2823
##########                Cloud:                    1
##########        Electrostatic:           -45.911396
##########        Van der Waals:           -23.024586
##########  Ligand Polar Desolv:             8.037269
########## Ligand Apolar Desolv:            -2.967615
##########      Internal Energy:             0.000000
##########      Receptor Energy: 0.0
########## Receptor Desolvation:             0.000000
########## Receptor Hydrophobic:             0.000000
##########         Total Energy: -63.87
##########        Ligand Charge:             1.000000
##########            Arbitrary:    +999.9990
##########     heavy atom count:   23
##########           pose count:    1
##########        Ligand Energy:             0.000000
# num electro vdwattr vdwrepu polsolv apolsol rdesolv rhydroe totalscore fullpol fullapo
#   1   -0.05   -0.48    0.06    0.04    0.01    0.00    0.00      -0.42    0.20    0.03
#   2    1.61   -1.31    0.68   -0.83    0.26    0.00    0.00       0.40   -3.02    0.93
#   3   -1.90   -0.70    0.05    0.13   -0.08    0.00    0.00      -2.49    0.54   -0.31
#   4    4.53   -0.98    0.08   -1.08   -0.14    0.00    0.00       2.41   -3.26   -0.42
#   5    1.39   -1.22    0.12   -0.53   -0.16    0.00    0.00      -0.39   -1.50   -0.45
#   6    3.99   -1.34    0.29   -0.85   -0.11    0.00    0.00       1.99   -2.66   -0.33
#   7    3.32   -2.05    1.46   -1.22   -0.10    0.00    0.00       1.41   -2.66   -0.21
#   8   -1.09   -1.20    0.21    1.03   -0.11    0.00    0.00      -1.15    2.32   -0.24
#   9    7.63   -2.62    0.94   -3.37   -0.11    0.00    0.00       2.47   -5.81   -0.19
#  10   20.19   -1.85    2.11   -5.88    0.21    0.00    0.00      14.78  -17.06    0.62
#  11  -13.90   -0.02    0.00    2.35    0.06    0.00    0.00     -11.50   14.82    0.38
#  12  -26.68   -0.25    0.23    5.34    0.17    0.00    0.00     -21.20   17.25    0.56
#  13    1.28   -0.66    0.06   -0.32   -0.12    0.00    0.00       0.25   -0.98   -0.36
#  14   -2.96   -0.79    0.16    1.20   -0.04    0.00    0.00      -2.43    4.20   -0.15
#  15   10.14   -0.53    0.03   -3.49    0.37    0.00    0.00       6.52  -15.33    1.61
#  16    1.48   -1.14    0.19   -0.50   -0.10    0.00    0.00      -0.07   -1.75   -0.34
#  17    1.02   -1.16    0.10   -0.54   -0.16    0.00    0.00      -0.74   -1.53   -0.44
#  18    0.67   -1.70    0.36   -0.68   -0.18    0.00    0.00      -1.54   -1.77   -0.46
#  19    0.08   -1.62    0.26   -0.35   -0.12    0.00    0.00      -1.75   -0.88   -0.30
#  20    0.12   -5.11    2.73   -0.46   -0.51    0.00    0.00      -3.24   -0.85   -0.95
#  21    0.13   -1.31    0.20   -0.31   -0.10    0.00    0.00      -1.39   -0.93   -0.30
#  22    0.21   -3.29    1.12   -0.34   -0.34    0.00    0.00      -2.63   -0.94   -0.95
#  23    0.56   -1.10    0.19   -0.40   -0.12    0.00    0.00      -0.87   -1.49   -0.44
#  24    1.65   -0.84    0.11   -0.36   -0.09    0.00    0.00       0.46   -1.53   -0.38
#  25    1.32   -0.48    0.02   -0.50   -0.08    0.00    0.00       0.27   -2.80   -0.46
#  26   -0.27   -0.23    0.06    0.19   -0.05    0.00    0.00      -0.30    1.00   -0.28
#  27   -0.12   -0.08    0.00    0.07   -0.02    0.00    0.00      -0.14    0.91   -0.27
#  28   -0.11   -0.09    0.00    0.05   -0.02    0.00    0.00      -0.16    0.56   -0.26
#  29   -4.21   -0.34    0.08    0.41   -0.07    0.00    0.00      -4.13    1.38   -0.22
#  30   -3.27   -0.47    0.19    1.09   -0.09    0.00    0.00      -2.55    3.22   -0.28
#  31   -4.65   -1.26    1.90    1.79   -0.12    0.00    0.00      -2.34    4.12   -0.28
#  32   -4.05   -1.16    1.52    1.42   -0.14    0.00    0.00      -2.42    2.86   -0.28
#  33   -3.99   -0.23    0.01    1.17   -0.06    0.00    0.00      -3.11    5.11   -0.28
#  34   -3.89   -0.85    0.60    0.97   -0.14    0.00    0.00      -3.32    1.87   -0.28
#  35   -4.30   -1.30    1.37    1.89   -0.13    0.00    0.00      -2.47    3.09   -0.21
#  36   -3.16   -1.44    1.48    1.82   -0.17    0.00    0.00      -1.46    3.04   -0.28
#  37   -4.23   -0.25    0.02    1.95   -0.07    0.00    0.00      -2.59    6.21   -0.23
#  38   -2.49   -0.14    0.00    0.67   -0.03    0.00    0.00      -2.00    5.75   -0.28
#  39   -3.70   -0.73    1.00    1.52   -0.08    0.00    0.00      -2.00    5.20   -0.28
#  40  -10.34   -0.01    0.00    1.68    0.14    0.00    0.00      -8.53   11.87    1.00
#  41   -2.12   -0.21    0.01    1.08   -0.05    0.00    0.00      -1.28    5.29   -0.23
#  42   -1.37   -0.61    0.43    0.61   -0.09    0.00    0.00      -1.03    1.90   -0.28
#  43   -1.06   -0.14    0.01    0.54   -0.04    0.00    0.00      -0.68    4.19   -0.28
#  44   -2.70   -0.16    0.01    0.94   -0.05    0.00    0.00      -1.96    5.67   -0.28
#  45   -0.60   -0.06    0.00    0.09   -0.02    0.00    0.00      -0.59    1.49   -0.28

@<TRIPOS>MOLECULE
          T526625        99
   45    46     0     0     0



@<TRIPOS>ATOM
      1 C1         -0.7856    -8.1967    91.5091 C.3        1           0.0224
      2 O1         -0.9111    -7.2499    92.5721 O.3        1          -0.3106
      3 C2          0.1447    -6.4221    92.7888 C.ar       1           0.1477
      4 C3          0.0930    -5.4824    93.8081 C.ar       1          -0.2009
      5 C4          1.1677    -4.6424    94.0267 C.ar       1          -0.0610
      6 C5          2.2940    -4.7373    93.2303 C.ar       1          -0.1729
      7 C6          3.4648    -3.8194    93.4706 C.3        1          -0.0926
      8 C7          4.4266    -4.4697    94.4670 C.3        1           0.0293
      9 C8          5.3198    -3.3947    95.0896 C.3        1          -0.1849
     10 N1          5.2617    -5.4562    93.7688 N.4        1          -0.5051
     11 H1          4.6988    -5.9604    93.1002 H          1           0.4304
     12 H2          6.0114    -4.9822    93.2879 H          1           0.4259
     13 C9          5.8249    -6.3991    94.7445 C.3        1          -0.0481
     14 C10         6.6947    -7.4265    94.0173 C.3        1           0.1365
     15 O2          6.0635    -7.8028    92.7918 O.3        1          -0.5429
     16 C11         6.8675    -8.6444    94.8879 C.ar       1          -0.1270
     17 C12         6.8538    -8.5171    96.2647 C.ar       1          -0.0903
     18 C13         7.0122    -9.6332    97.0643 C.ar       1          -0.0898
     19 C14         7.1843   -10.8788    96.4872 C.ar       1          -0.0181
     20 Cl1         7.3827   -12.2811    97.4910 Cl         1          -0.0244
     21 C15         7.1977   -11.0062    95.1087 C.ar       1          -0.0300
     22 Cl2         7.4128   -12.5685    94.3830 Cl         1          -0.0262
     23 C16         7.0341    -9.8886    94.3098 C.ar       1          -0.0818
     24 C17         2.3480    -5.6734    92.2140 C.ar       1          -0.0965
     25 C18         1.2781    -6.5192    91.9947 C.ar       1          -0.1419
     26 H3         -1.6957    -8.7932    91.4444 H          1           0.1096
     27 H4         -0.6297    -7.6685    90.5684 H          1           0.0600
     28 H5          0.0644    -8.8508    91.7036 H          1           0.0615
     29 H6         -0.7867    -5.4074    94.4299 H          1           0.1372
     30 H7          1.1280    -3.9107    94.8201 H          1           0.1317
     31 H8          3.9840    -3.6387    92.5294 H          1           0.0974
     32 H9          3.1071    -2.8729    93.8758 H          1           0.1200
     33 H10         3.8558    -4.9668    95.2514 H          1           0.1394
     34 H11         6.0049    -3.8581    95.7995 H          1           0.1086
     35 H12         5.8905    -2.8977    94.3051 H          1           0.0823
     36 H13         4.7002    -2.6627    95.6075 H          1           0.0847
     37 H14         6.4329    -5.8545    95.4668 H          1           0.1484
     38 H15         5.0150    -6.9113    95.2641 H          1           0.1379
     39 H16         7.6707    -6.9905    93.8044 H          1           0.1368
     40 H17         5.9201    -7.0670    92.1810 H          1           0.3890
     41 H18         6.7194    -7.5450    96.7155 H          1           0.1390
     42 H19         7.0021    -9.5330    98.1395 H          1           0.1523
     43 H20         7.0403    -9.9879    93.2344 H          1           0.1481
     44 H21         3.2291    -5.7457    91.5935 H          1           0.1286
     45 H22         1.3223    -7.2525    91.2032 H          1           0.1403
@<TRIPOS>BOND
     1    1    2 1
     2    1   26 1
     3    1   27 1
     4    1   28 1
     5    2    3 1
     6    3   25 ar
     7    3    4 ar
     8    4    5 ar
     9    4   29 1
    10    5    6 ar
    11    5   30 1
    12    6    7 1
    13    6   24 ar
    14    7    8 1
    15    7   31 1
    16    7   32 1
    17    8    9 1
    18    8   10 1
    19    8   33 1
    20    9   34 1
    21    9   35 1
    22    9   36 1
    23   10   11 1
    24   10   12 1
    25   10   13 1
    26   13   14 1
    27   13   37 1
    28   13   38 1
    29   14   15 1
    30   14   16 1
    31   14   39 1
    32   15   40 1
    33   16   23 ar
    34   16   17 ar
    35   17   18 ar
    36   17   41 1
    37   18   19 ar
    38   18   42 1
    39   19   20 1
    40   19   21 ar
    41   21   22 1
    42   21   23 ar
    43   23   43 1
    44   24   25 ar
    45   24   44 1
    46   25   45 1
##########                 Name:              T525932
##########          Protonation:                   99
##########               SMILES:   c1ccc2c(c1)ccc(n2)CCOCCCCC[NH2+]C[C@@H](c3cc(c(c(c3)Cl)N)Cl)O
##########            Long Name:   5-dichloro-phenyl)-2-hydroxy-ethyl]-[5-[2-(2-quinolyl)ethoxy]pentyl]ammonium
##########          FlexRecCode: 1
##########               Number:                  256
##########   Ligand Source File: /raidb/db2/rgc/tcams/tcams-0000129.db2.gz
##########           GlobalRank: 445
##########                 Rank:                    1
##########               Setnum:                   89
##########             Matchnum:                 4849
##########                Cloud:                    1
##########        Electrostatic:           -39.952358
##########        Van der Waals:           -25.973255
##########  Ligand Polar Desolv:             4.229072
########## Ligand Apolar Desolv:            -2.154711
##########      Internal Energy:             0.000000
##########      Receptor Energy: 0.0
########## Receptor Desolvation:             0.000000
########## Receptor Hydrophobic:             0.000000
##########         Total Energy: -63.85
##########        Ligand Charge:             1.000000
##########            Arbitrary:    +999.9990
##########     heavy atom count:   31
##########           pose count:    1
##########        Ligand Energy:             0.000000
# num electro vdwattr vdwrepu polsolv apolsol rdesolv rhydroe totalscore fullpol fullapo
#   1    8.13   -1.83    0.53   -3.96    0.45    0.00    0.00       3.32   -7.76    0.88
#   2   -2.35   -1.56    0.30    0.79   -0.29    0.00    0.00      -3.11    1.95   -0.73
#   3    1.45   -1.53    0.18   -0.88   -0.14    0.00    0.00      -0.91   -1.88   -0.29
#   4    0.81   -4.75    1.16   -0.60   -0.56    0.00    0.00      -3.94   -1.02   -0.94
#   5    0.47   -1.23    0.10   -0.26   -0.18    0.00    0.00      -1.11   -0.65   -0.44
#   6    1.84   -1.10    0.13   -0.92   -0.11    0.00    0.00      -0.16   -2.89   -0.34
#   7    0.12   -1.78    0.76   -0.23   -0.14    0.00    0.00      -1.27   -0.69   -0.42
#   8    0.50   -1.51    0.22   -0.70   -0.11    0.00    0.00      -1.60   -1.89   -0.29
#   9    0.20   -3.86    1.57   -0.46   -0.42    0.00    0.00      -2.96   -1.03   -0.94
#  10   -2.07   -0.54    0.05    1.15   -0.04    0.00    0.00      -1.45    4.32   -0.15
#  11    8.13   -0.76    0.04   -4.86    0.51    0.00    0.00       3.07  -15.27    1.61
#  12    1.33   -0.81    0.18   -0.17   -0.12    0.00    0.00       0.42   -0.55   -0.38
#  13   20.35   -1.99    2.72   -5.30    0.22    0.00    0.00      16.00  -17.39    0.73
#  14  -15.09   -0.02    0.00    3.60    0.12    0.00    0.00     -11.40   17.41    0.57
#  15  -28.79   -0.33    0.38    5.41    0.17    0.00    0.00     -23.17   16.71    0.52
#  16    0.28   -0.60    0.12    0.15   -0.09    0.00    0.00      -0.14    0.68   -0.40
#  17    3.97   -0.89    0.19   -1.17   -0.07    0.00    0.00       2.03   -4.07   -0.24
#  18    1.29   -0.38    0.03   -0.52   -0.05    0.00    0.00       0.37   -2.50   -0.22
#  19    0.26   -1.03    0.65   -0.48   -0.06    0.00    0.00      -0.65   -1.79   -0.24
#  20   -0.10   -0.37    0.03    0.07   -0.02    0.00    0.00      -0.40    0.35   -0.12
#  21    0.72   -0.32    0.01   -0.45    0.20    0.00    0.00       0.17   -2.95    1.34
#  22   -0.11   -0.24    0.01    0.08   -0.02    0.00    0.00      -0.28    0.54   -0.11
#  23    0.12   -0.19    0.00   -0.05   -0.03    0.00    0.00      -0.14   -0.38   -0.26
#  24   -0.24   -0.38    0.01    0.07   -0.09    0.00    0.00      -0.63    0.53   -0.69
#  25    0.55   -0.38    0.02   -0.07    0.22    0.00    0.00       0.35   -0.56    1.81
#  26   -0.13   -0.47    0.03    0.00   -0.12    0.00    0.00      -0.69    0.00   -0.73
#  27    0.07   -0.40    0.02   -0.05   -0.07    0.00    0.00      -0.43   -0.35   -0.46
#  28    0.06   -0.39    0.01   -0.07   -0.08    0.00    0.00      -0.46   -0.43   -0.47
#  29    0.05   -0.70    0.09   -0.15   -0.10    0.00    0.00      -0.80   -0.71   -0.47
#  30    0.05   -1.30    0.52   -0.15   -0.13    0.00    0.00      -1.01   -0.52   -0.46
#  31    0.10   -0.77    0.07   -0.11   -0.10    0.00    0.00      -0.81   -0.46   -0.40
#  32    0.07   -1.00    0.10   -0.11   -0.14    0.00    0.00      -1.09   -0.34   -0.46
#  33    0.30   -0.63    0.03   -0.26   -0.11    0.00    0.00      -0.68   -1.07   -0.45
#  34   -3.22   -0.02    0.00    1.29    0.19    0.00    0.00      -1.77    3.48    0.50
#  35   -5.15   -0.03    0.00    1.31    0.19    0.00    0.00      -3.68    3.45    0.50
#  36   -2.52   -0.29    0.06    1.05   -0.07    0.00    0.00      -1.78    4.06   -0.28
#  37    0.26   -0.63    0.62    1.05   -0.06    0.00    0.00       1.25    4.35   -0.23
#  38   -1.03   -0.18    0.03    0.66   -0.04    0.00    0.00      -0.55    4.87   -0.28
#  39   -7.33   -0.01    0.00    1.29    0.11    0.00    0.00      -5.95   11.66    1.00
#  40   -4.38   -0.27    0.03    1.76   -0.09    0.00    0.00      -2.95    5.56   -0.28
#  41   -4.23   -0.29    0.07    1.39   -0.06    0.00    0.00      -3.13    6.02   -0.28
#  42   -3.47   -0.15    0.02    0.64   -0.04    0.00    0.00      -3.00    4.96   -0.28
#  43   -2.11   -0.09    0.00    0.41   -0.02    0.00    0.00      -1.80    5.19   -0.28
#  44   -2.10   -0.26    0.05    0.64   -0.06    0.00    0.00      -1.73    2.87   -0.28
#  45   -3.82   -0.80    0.81    0.92   -0.10    0.00    0.00      -2.99    2.65   -0.28
#  46   -0.82   -0.07    0.00    0.13   -0.02    0.00    0.00      -0.79    1.55   -0.28
#  47   -0.57   -0.06    0.00    0.09   -0.01    0.00    0.00      -0.55    1.71   -0.28
#  48   -0.14   -0.60    1.15    0.20   -0.06    0.00    0.00       0.54    0.98   -0.28
#  49   -0.23   -0.66    0.59    0.27   -0.09    0.00    0.00      -0.12    0.82   -0.28
#  50   -0.07   -0.05    0.00    0.02   -0.01    0.00    0.00      -0.11    0.43   -0.28
#  51   -0.06   -0.16    0.01    0.10   -0.05    0.00    0.00      -0.16    0.60   -0.28
#  52   -0.08   -0.04    0.00    0.00   -0.01    0.00    0.00      -0.13    0.07   -0.27
#  53   -0.07   -0.15    0.01    0.05   -0.04    0.00    0.00      -0.20    0.30   -0.28
#  54   -0.21   -0.08    0.00    0.08   -0.02    0.00    0.00      -0.23    1.13   -0.27
#  55   -0.15   -0.03    0.00    0.01   -0.01    0.00    0.00      -0.18    0.44   -0.28
#  56   -0.10   -0.06    0.00    0.03   -0.02    0.00    0.00      -0.16    0.37   -0.28
#  57   -0.07   -0.05    0.00    0.05   -0.01    0.00    0.00      -0.08    1.21   -0.28
#  58   -0.04   -0.13    0.01    0.19   -0.04    0.00    0.00       0.00    1.35   -0.28
#  59   -0.04   -0.57    0.47    0.43   -0.09    0.00    0.00       0.20    1.33   -0.28
#  60   -0.20   -0.41    0.10    0.53   -0.09    0.00    0.00      -0.07    1.71   -0.28
#  61   -0.32   -0.19    0.03    0.32   -0.05    0.00    0.00      -0.22    1.89   -0.28

@<TRIPOS>MOLECULE
          T525932        99
   61    63     0     0     0



@<TRIPOS>ATOM
      1 N1          8.5564   -10.7885    98.1232 N.pl3      1          -0.8497
      2 C1          7.7379    -9.9910    97.3173 C.ar       1           0.2617
      3 C2          7.5935    -8.6372    97.5952 C.ar       1          -0.1098
      4 Cl1         8.4299    -7.9327    98.9435 Cl         1          -0.0408
      5 C3          6.7834    -7.8521    96.7965 C.ar       1          -0.0333
      6 C4          6.1172    -8.4122    95.7220 C.ar       1          -0.1883
      7 C5          6.2581    -9.7591    95.4428 C.ar       1          -0.0385
      8 C6          7.0713   -10.5493    96.2334 C.ar       1          -0.1088
      9 Cl2         7.2536   -12.2385    95.8771 Cl         1          -0.0413
     10 C7          5.2351    -7.5528    94.8536 C.3        1           0.1467
     11 O1          4.1929    -6.9837    95.6488 O.3        1          -0.5467
     12 C8          6.0697    -6.4326    94.2294 C.3        1          -0.0450
     13 N2          5.2098    -5.5947    93.3829 N.4        1          -0.5059
     14 H1          4.4740    -5.1931    93.9443 H          1           0.4296
     15 H2          5.7603    -4.8561    92.9713 H          1           0.4322
     16 C9          4.6200    -6.4174    92.3182 C.3        1          -0.0102
     17 C10         3.7245    -5.5447    91.4366 C.3        1          -0.1489
     18 C11         3.1100    -6.4014    90.3277 C.3        1          -0.1154
     19 C12         2.2144    -5.5286    89.4460 C.3        1          -0.1202
     20 C13         1.6000    -6.3853    88.3372 C.3        1           0.0617
     21 O2          2.6421    -6.9543    87.5421 O.3        1          -0.3901
     22 C14         2.2163    -7.3855    86.2479 C.3        1           0.0734
     23 C15         3.4073    -7.9743    85.4891 C.3        1          -0.0680
     24 C16         2.9583    -8.4290    84.1243 C.ar       1           0.1589
     25 N3          1.7239    -8.8404    83.9629 N.ar       1          -0.4731
     26 C17         1.2793    -9.2531    82.7720 C.ar       1           0.1308
     27 C18        -0.0457    -9.6929    82.6045 C.ar       1          -0.0969
     28 C19        -0.4699   -10.1069    81.3797 C.ar       1          -0.0961
     29 C20         0.3888   -10.1038    80.2821 C.ar       1          -0.1147
     30 C21         1.6785    -9.6851    80.4053 C.ar       1          -0.0950
     31 C22         2.1506    -9.2503    81.6543 C.ar       1          -0.1061
     32 C23         3.4764    -8.8098    81.8239 C.ar       1          -0.0506
     33 C24         3.8640    -8.3956    83.0666 C.ar       1          -0.1702
     34 H3          8.6610   -11.7321    97.9245 H          1           0.4115
     35 H4          9.0227   -10.3972    98.8783 H          1           0.4117
     36 H5          6.6704    -6.7998    97.0120 H          1           0.1439
     37 H6          5.7360   -10.1933    94.6030 H          1           0.1382
     38 H7          4.7974    -8.1630    94.0637 H          1           0.1335
     39 H8          3.5854    -6.4171    95.1538 H          1           0.3881
     40 H9          6.5075    -5.8223    95.0193 H          1           0.1370
     41 H10         6.8647    -6.8667    93.6229 H          1           0.1453
     42 H11         5.4148    -6.8514    91.7118 H          1           0.1319
     43 H12         4.0253    -7.2153    92.7630 H          1           0.1326
     44 H13         2.9296    -5.1106    92.0430 H          1           0.0901
     45 H14         4.3191    -4.7467    90.9918 H          1           0.0902
     46 H15         3.9049    -6.8354    89.7213 H          1           0.0766
     47 H16         2.5152    -7.1993    90.7725 H          1           0.0763
     48 H17         1.4195    -5.0946    90.0525 H          1           0.0758
     49 H18         2.8092    -4.7308    89.0013 H          1           0.0762
     50 H19         1.0054    -7.1833    88.7818 H          1           0.0506
     51 H20         0.9620    -5.7636    87.7090 H          1           0.0493
     52 H21         1.4420    -8.1452    86.3547 H          1           0.0636
     53 H22         1.8174    -6.5352    85.6946 H          1           0.0486
     54 H23         4.1816    -7.2146    85.3823 H          1           0.0904
     55 H24         3.8062    -8.8245    86.0423 H          1           0.0944
     56 H25        -0.7240    -9.7023    83.4449 H          1           0.1352
     57 H26        -1.4886   -10.4438    81.2562 H          1           0.1323
     58 H27         0.0267   -10.4383    79.3213 H          1           0.1307
     59 H28         2.3345    -9.6876    79.5474 H          1           0.1324
     60 H29         4.1666    -8.7946    80.9934 H          1           0.1425
     61 H30         4.8731    -8.0473    83.2300 H          1           0.1396
@<TRIPOS>BOND
     1    1    2 1
     2    1   34 1
     3    1   35 1
     4    2    8 ar
     5    2    3 ar
     6    3    4 1
     7    3    5 ar
     8    5    6 ar
     9    5   36 1
    10    6    7 ar
    11    6   10 1
    12    7    8 ar
    13    7   37 1
    14    8    9 1
    15   10   11 1
    16   10   12 1
    17   10   38 1
    18   11   39 1
    19   12   13 1
    20   12   40 1
    21   12   41 1
    22   13   14 1
    23   13   15 1
    24   13   16 1
    25   16   17 1
    26   16   42 1
    27   16   43 1
    28   17   18 1
    29   17   44 1
    30   17   45 1
    31   18   19 1
    32   18   46 1
    33   18   47 1
    34   19   20 1
    35   19   48 1
    36   19   49 1
    37   20   21 1
    38   20   50 1
    39   20   51 1
    40   21   22 1
    41   22   23 1
    42   22   52 1
    43   22   53 1
    44   23   24 1
    45   23   54 1
    46   23   55 1
    47   24   33 ar
    48   24   25 ar
    49   25   26 ar
    50   26   31 ar
    51   26   27 ar
    52   27   28 ar
    53   27   56 1
    54   28   29 ar
    55   28   57 1
    56   29   30 ar
    57   29   58 1
    58   30   31 ar
    59   30   59 1
    60   31   32 ar
    61   32   33 ar
    62   32   60 1
    63   33   61 1
##########                 Name:              T527991
##########          Protonation:                   25
##########               SMILES:   [H]/N=C/1\[NH+]=C(NC(N1OCCCOc2ccc(cc2CC=C)Br)(C)C)N
##########            Long Name:   4-bromo-phenoxy)propoxy]-4-imino-6,6-dimethyl-1H-1,3,5-triazin-3-ium-2-amine
##########          FlexRecCode: 1
##########               Number:                  180
##########   Ligand Source File: /raidb/db2/rgc/tcams/tcams-0000355.db2.gz
##########           GlobalRank: 445
##########                 Rank:                    1
##########               Setnum:                   36
##########             Matchnum:                 2793
##########                Cloud:                    1
##########        Electrostatic:           -35.718391
##########        Van der Waals:           -31.152290
##########  Ligand Polar Desolv:             6.625592
########## Ligand Apolar Desolv:            -3.608508
##########      Internal Energy:             0.000000
##########      Receptor Energy: 0.0
########## Receptor Desolvation:             0.000000
########## Receptor Hydrophobic:             0.000000
##########         Total Energy: -63.85
##########        Ligand Charge:             1.000000
##########            Arbitrary:    +999.9990
##########     heavy atom count:   25
##########           pose count:    1
##########        Ligand Energy:             0.000000
# num electro vdwattr vdwrepu polsolv apolsol rdesolv rhydroe totalscore fullpol fullapo
#   1    2.19   -0.49    0.07   -0.85   -0.03    0.00    0.00       0.89   -3.92   -0.16
#   2   -4.47   -0.31    0.01    1.67   -0.07    0.00    0.00      -3.16    9.43   -0.38
#   3    0.41   -0.26    0.01   -0.63   -0.03    0.00    0.00      -0.51   -3.66   -0.18
#   4   11.16   -0.73    0.04   -5.04    0.40    0.00    0.00       5.83  -18.88    1.50
#   5  -17.77   -1.09    0.13    7.02   -1.55    0.00    0.00     -13.25   21.39   -4.71
#   6   24.38   -2.26    0.88   -9.76    0.39    0.00    0.00      13.64  -23.42    0.93
#   7   15.18   -1.27    0.26   -6.00    0.39    0.00    0.00       8.55  -15.67    1.02
#   8  -15.74   -0.05    0.00    4.73    0.20    0.00    0.00     -10.86   13.50    0.57
#   9   -8.22   -0.88    0.07    3.73   -1.45    0.00    0.00      -6.75   11.83   -4.61
#  10    3.96   -2.14    1.47   -4.59    0.57    0.00    0.00      -0.73  -11.70    1.46
#  11    6.19   -0.54    0.02   -1.70    0.16    0.00    0.00       4.13   -9.20    0.88
#  12    0.99   -0.45    0.02   -0.37    0.08    0.00    0.00       0.26   -1.97    0.43
#  13   -0.46   -0.50    0.03    0.17   -0.03    0.00    0.00      -0.79    0.69   -0.12
#  14    3.28   -0.78    0.18   -0.40   -0.07    0.00    0.00       2.21   -1.41   -0.25
#  15   -0.96   -0.59    0.06    0.18   -0.02    0.00    0.00      -1.33    0.67   -0.09
#  16    3.04   -0.85    0.07   -0.90    0.26    0.00    0.00       1.62   -2.87    0.82
#  17   -1.10   -1.29    0.14    0.38   -0.11    0.00    0.00      -1.98    1.08   -0.31
#  18    0.60   -1.69    0.38   -0.63   -0.15    0.00    0.00      -1.50   -1.76   -0.42
#  19    0.28   -1.54    0.20   -0.20   -0.20    0.00    0.00      -1.46   -0.46   -0.46
#  20    0.96   -1.63    0.34   -0.37   -0.15    0.00    0.00      -0.86   -0.73   -0.30
#  21    0.23   -7.59    3.61   -0.18   -0.67    0.00    0.00      -4.60   -0.30   -1.09
#  22    0.54   -1.83    0.58   -0.15   -0.20    0.00    0.00      -1.06   -0.33   -0.44
#  23    1.16   -1.48    0.19   -0.30   -0.15    0.00    0.00      -0.59   -0.70   -0.36
#  24    0.76   -1.20    0.17   -0.11   -0.12    0.00    0.00      -0.50   -0.22   -0.24
#  25    2.26   -3.09    1.05   -0.45   -0.25    0.00    0.00      -0.47   -0.78   -0.44
#  26    2.74   -3.33    1.37   -0.58   -0.18    0.00    0.00       0.03   -1.08   -0.33
#  27   -0.56   -0.20    0.07    0.18   -0.04    0.00    0.00      -0.56    1.26   -0.27
#  28   -2.25   -0.28    0.06    0.80   -0.07    0.00    0.00      -1.73    3.39   -0.28
#  29   -0.99   -0.07    0.00    0.16   -0.02    0.00    0.00      -0.92    2.08   -0.22
#  30   -0.28   -0.12    0.01    0.12   -0.04    0.00    0.00      -0.31    0.91   -0.28
#  31   -0.13   -0.06    0.00    0.08   -0.02    0.00    0.00      -0.13    1.30   -0.27
#  32   -0.17   -0.06    0.00    0.19   -0.02    0.00    0.00      -0.06    3.06   -0.28
#  33   -6.21   -0.02    0.00    2.66    0.10    0.00    0.00      -3.46   14.72    0.58
#  34  -11.63   -0.02    0.00    4.32    0.16    0.00    0.00      -7.17   15.55    0.59
#  35  -18.45   -0.10    0.01    6.64    0.26    0.00    0.00     -11.64   15.27    0.59
#  36   -3.59   -0.04    0.00    2.66    0.25    0.00    0.00      -0.72    6.16    0.58
#  37   -2.29   -0.21    0.03    0.44   -0.04    0.00    0.00      -2.08    2.33   -0.21
#  38   -1.29   -0.14    0.00    0.11   -0.03    0.00    0.00      -1.34    1.00   -0.28
#  39   -3.47   -0.37    0.26    0.09   -0.06    0.00    0.00      -3.55    0.44   -0.28
#  40   -3.16   -0.32    0.07    0.30   -0.08    0.00    0.00      -3.19    1.04   -0.28
#  41   -0.57   -0.15    0.01    0.23   -0.03    0.00    0.00      -0.51    1.75   -0.26
#  42   -1.05   -0.35    0.15    0.25   -0.05    0.00    0.00      -1.06    1.26   -0.27
#  43    0.15   -0.53    0.30    0.72   -0.06    0.00    0.00       0.59    2.69   -0.22
#  44   -0.90   -0.35    0.07    0.51   -0.10    0.00    0.00      -0.77    1.45   -0.28
#  45   -2.21   -0.39    0.08    0.22   -0.11    0.00    0.00      -2.41    0.56   -0.28
#  46   -1.55   -0.48    0.09    0.20   -0.12    0.00    0.00      -1.85    0.43   -0.26
#  47   -1.61   -0.33    0.06    0.15   -0.08    0.00    0.00      -1.82    0.48   -0.26
#  48   -2.01   -0.89    0.33    0.38   -0.17    0.00    0.00      -2.35    0.65   -0.28
#  49   -1.52   -1.05    0.57    0.36   -0.17    0.00    0.00      -1.80    0.61   -0.28
#  50   -1.56   -0.34    0.05    0.19   -0.10    0.00    0.00      -1.76    0.53   -0.27

@<TRIPOS>MOLECULE
          T527991        25
   50    51     0     0     0



@<TRIPOS>ATOM
      1 C1          2.4374    -6.0372    91.2399 C.3        1          -0.1735
      2 C2          1.5691    -6.6112    92.3613 C.3        1           0.4066
      3 C3          0.7760    -7.8136    91.8457 C.3        1          -0.1719
      4 N1          0.6486    -5.5761    92.8668 N.pl3      1          -0.6981
      5 C4          0.0559    -5.7869    94.0853 C.cat      1           0.7437
      6 N2         -1.1322    -5.1775    94.3775 N.pl3      1          -0.7847
      7 N3          0.6246    -6.5733    94.9756 N.pl3      1          -0.6211
      8 H1          0.1944    -6.7032    95.8352 H          1           0.4497
      9 C5          1.7887    -7.2021    94.7221 C.2        1           0.5897
     10 N4          2.3246    -7.9857    95.6250 N.2        1          -0.6583
     11 N5          2.4164    -7.0154    93.4996 N.pl3      1          -0.4879
     12 O1          3.8116    -7.2047    93.3499 O.3        1          -0.0678
     13 C6          4.6059    -6.3514    94.1764 C.3        1           0.0190
     14 C7          6.0883    -6.6415    93.9328 C.3        1          -0.1142
     15 C8          6.3849    -8.1030    94.2750 C.3        1           0.0647
     16 O2          6.0716    -8.3438    95.6482 O.3        1          -0.3017
     17 C9          6.7986    -9.2968    96.2892 C.ar       1           0.1448
     18 C10         6.7875   -10.6055    95.8286 C.ar       1          -0.2022
     19 C11         7.5269   -11.5725    96.4813 C.ar       1          -0.0540
     20 C12         8.2780   -11.2369    97.5937 C.ar       1          -0.1219
     21 Br1         9.2893   -12.5628    98.4854 Br         1          -0.0417
     22 C13         8.2908    -9.9325    98.0542 C.ar       1          -0.0468
     23 C14         7.5568    -8.9611    97.4011 C.ar       1          -0.0979
     24 C15         7.5755    -7.5393    97.8997 C.3        1          -0.0469
     25 C16         6.4718    -7.3458    98.9074 C.2        1          -0.1499
     26 C17         5.2839    -6.9602    98.5120 C.2        1          -0.1867
     27 H2          1.8030    -5.7417    90.4042 H          1           0.1124
     28 H3          2.9799    -5.1672    91.6096 H          1           0.1016
     29 H4          3.1478    -6.7939    90.9070 H          1           0.0812
     30 H5          0.1609    -8.2156    92.6508 H          1           0.1076
     31 H6          0.1358    -7.5002    91.0210 H          1           0.0659
     32 H7          1.4665    -8.5820    91.4977 H          1           0.0983
     33 H8          0.4684    -4.7724    92.3544 H          1           0.4476
     34 H9         -1.5537    -4.5979    93.7237 H          1           0.4450
     35 H10        -1.5539    -5.3246    95.2386 H          1           0.4419
     36 H11         1.8831    -8.1144    96.4789 H          1           0.3659
     37 H12         4.3946    -5.3102    93.9325 H          1           0.0683
     38 H13         4.3670    -6.5352    95.2239 H          1           0.0661
     39 H14         6.3272    -6.4578    92.8854 H          1           0.0947
     40 H15         6.6942    -5.9907    94.5633 H          1           0.0932
     41 H16         5.7790    -8.7539    93.6446 H          1           0.0667
     42 H17         7.4410    -8.3097    94.1016 H          1           0.0666
     43 H18         6.2010   -10.8680    94.9605 H          1           0.1334
     44 H19         7.5183   -12.5915    96.1233 H          1           0.1363
     45 H20         8.8777    -9.6726    98.9227 H          1           0.1420
     46 H21         8.5369    -7.3315    98.3695 H          1           0.0803
     47 H22         7.4259    -6.8584    97.0618 H          1           0.0885
     48 H23         6.6600    -7.5253    99.9556 H          1           0.1072
     49 H24         4.4930    -6.8216    99.2342 H          1           0.0996
     50 H25         5.0956    -6.7807    97.4638 H          1           0.0986
@<TRIPOS>BOND
     1    1    2 1
     2    1   27 1
     3    1   28 1
     4    1   29 1
     5    2   11 1
     6    2    3 1
     7    2    4 1
     8    3   30 1
     9    3   31 1
    10    3   32 1
    11    4    5 1
    12    4   33 1
    13    5    6 1
    14    5    7 2
    15    6   34 1
    16    6   35 1
    17    7    8 1
    18    7    9 1
    19    9   10 2
    20    9   11 1
    21   10   36 1
    22   11   12 1
    23   12   13 1
    24   13   14 1
    25   13   37 1
    26   13   38 1
    27   14   15 1
    28   14   39 1
    29   14   40 1
    30   15   16 1
    31   15   41 1
    32   15   42 1
    33   16   17 1
    34   17   23 ar
    35   17   18 ar
    36   18   19 ar
    37   18   43 1
    38   19   20 ar
    39   19   44 1
    40   20   21 1
    41   20   22 ar
    42   22   23 ar
    43   22   45 1
    44   23   24 1
    45   24   25 1
    46   24   46 1
    47   24   47 1
    48   25   26 2
    49   25   48 1
    50   26   49 1
    51   26   50 1
##########                 Name:              T533145
##########          Protonation:                   13
##########               SMILES:   CN([C@H]1CC[NH+](CC1)Cc2cc(ccc2)C#N)c3[nH+]ccc(c3)NC(=O)c4sccc4
##########            Long Name:   iperidin-1-ium-4-yl]-methyl-amino]pyridin-1-ium-4-yl]thiophene-2-carboxamide
##########          FlexRecCode: 1
##########               Number:                   52
##########   Ligand Source File: /raidb/db2/rgc/tcams/tcams-0001081.db2.gz
##########           GlobalRank: 445
##########                 Rank:                    1
##########               Setnum:                   79
##########             Matchnum:                   76
##########                Cloud:                    1
##########        Electrostatic:           -45.979168
##########        Van der Waals:           -21.968000
##########  Ligand Polar Desolv:             8.282577
########## Ligand Apolar Desolv:            -4.186074
##########      Internal Energy:             0.000000
##########      Receptor Energy: 0.0
########## Receptor Desolvation:             0.000000
########## Receptor Hydrophobic:             0.000000
##########         Total Energy: -63.85
##########        Ligand Charge:             2.000000
##########            Arbitrary:    +999.9990
##########     heavy atom count:   31
##########           pose count:    1
##########        Ligand Energy:             0.000000
# num electro vdwattr vdwrepu polsolv apolsol rdesolv rhydroe totalscore fullpol fullapo
#   1   -1.04   -0.36    0.02    0.13   -0.08    0.00    0.00      -1.32    0.68   -0.41
#   2   12.48   -0.60    0.04   -5.00    0.27    0.00    0.00       7.20  -24.88    1.35
#   3   -1.94   -0.32    0.02    0.91   -0.05    0.00    0.00      -1.38    4.82   -0.26
#   4    4.14   -0.79    0.21   -1.77   -0.05    0.00    0.00       1.75   -6.94   -0.21
#   5    0.65   -0.37    0.03   -0.28   -0.07    0.00    0.00      -0.04   -1.43   -0.34
#   6    4.31   -0.19    0.00   -1.63    0.03    0.00    0.00       2.52  -17.54    0.27
#   7   -3.46    0.00    0.00    0.77    0.02    0.00    0.00      -2.67   22.84    0.54
#   8   -0.57   -0.23    0.01    0.40   -0.05    0.00    0.00      -0.45    2.81   -0.36
#   9    3.03   -0.68    0.04   -0.94   -0.08    0.00    0.00       1.38   -3.98   -0.33
#  10    1.94   -2.24    1.17   -0.35   -0.16    0.00    0.00       0.36   -0.98   -0.45
#  11    3.97   -3.13    1.59   -2.01   -0.22    0.00    0.00       0.20   -4.33   -0.47
#  12    1.23   -2.35    0.74   -1.10   -0.21    0.00    0.00      -1.68   -2.41   -0.45
#  13    0.12   -1.31    0.21   -0.86   -0.15    0.00    0.00      -1.99   -2.35   -0.40
#  14    0.94   -0.64    0.04   -0.18   -0.09    0.00    0.00       0.09   -0.72   -0.35
#  15   -4.48   -2.18    0.96    1.91   -0.51    0.00    0.00      -4.29    5.50   -1.46
#  16    3.22   -3.72    5.97   -2.50    0.24    0.00    0.00       3.21   -7.39    0.71
#  17    0.10   -0.10    0.00   -0.07   -0.02    0.00    0.00      -0.09   -1.16   -0.34
#  18    1.63   -0.15    0.00   -0.77   -0.02    0.00    0.00       0.69   -7.93   -0.22
#  19   -9.43   -0.72    0.05    4.66   -0.45    0.00    0.00      -5.88   19.64   -1.91
#  20    3.14   -0.86    0.08   -2.10   -0.12    0.00    0.00       0.14   -7.77   -0.43
#  21   -4.17   -1.01    0.07    2.52   -0.23    0.00    0.00      -2.82    7.49   -0.68
#  22    6.66   -1.22    0.09   -6.30    0.60    0.00    0.00      -0.15  -17.29    1.66
#  23   -3.24   -1.41    0.19    4.46   -0.23    0.00    0.00      -0.24   12.52   -0.65
#  24    0.46   -1.89    0.72   -3.11    0.12    0.00    0.00      -3.70   -9.24    0.35
#  25    2.01   -1.47    0.20   -2.33   -0.14    0.00    0.00      -1.73   -5.32   -0.32
#  26    0.22   -1.81    0.53   -0.95   -0.24    0.00    0.00      -2.26   -1.84   -0.47
#  27    1.29   -2.38    0.52   -1.99   -0.27    0.00    0.00      -2.84   -3.34   -0.46
#  28    1.18   -3.36    1.70   -2.65   -0.15    0.00    0.00      -3.28   -4.28   -0.25
#  29   -1.88   -3.29    0.91    4.20   -0.42    0.00    0.00      -0.48    7.98   -0.79
#  30    2.94   -1.25    0.16   -3.03   -0.16    0.00    0.00      -1.35   -7.63   -0.41
#  31   -4.02   -1.21    0.13    2.87   -0.35    0.00    0.00      -2.59    7.83   -0.97
#  32   13.90   -0.86    0.06   -5.60    0.23    0.00    0.00       7.73  -19.66    0.80
#  33  -13.92   -0.01    0.00    3.54    0.07    0.00    0.00     -10.33   20.56    0.39
#  34   -1.59   -0.10    0.00    0.70   -0.02    0.00    0.00      -1.02    6.48   -0.23
#  35   -2.54   -0.18    0.02    0.57   -0.04    0.00    0.00      -2.17    3.24   -0.24
#  36   -1.10   -0.06    0.00    0.35   -0.01    0.00    0.00      -0.82    6.45   -0.18
#  37   -1.53   -0.09    0.00    0.44   -0.02    0.00    0.00      -1.20    5.44   -0.26
#  38   -4.56   -0.36    0.16    1.21   -0.05    0.00    0.00      -3.61    5.36   -0.23
#  39   -4.43   -0.53    0.33    1.92   -0.08    0.00    0.00      -2.80    6.39   -0.28
#  40   -2.87   -0.14    0.01    1.26   -0.02    0.00    0.00      -1.76    8.30   -0.13
#  41   -1.97   -0.12    0.01    1.07   -0.03    0.00    0.00      -1.04    9.08   -0.28
#  42   -0.90   -0.05    0.00    0.41   -0.01    0.00    0.00      -0.55    8.84   -0.28
#  43   -2.42   -0.09    0.00    0.94   -0.03    0.00    0.00      -1.60    9.72   -0.27
#  44   -5.46   -1.00    1.91    2.86   -0.10    0.00    0.00      -1.79    8.44   -0.28
#  45   -7.78   -1.81    3.70    1.74   -0.15    0.00    0.00      -4.30    3.27   -0.28
#  46   -6.63   -1.27    1.86    0.60   -0.13    0.00    0.00      -5.56    1.26   -0.28
#  47   -1.22   -0.08    0.00    0.57   -0.02    0.00    0.00      -0.74    7.11   -0.28
#  48   -0.52   -0.02    0.00    0.19   -0.01    0.00    0.00      -0.36    7.41   -0.27
#  49   -0.87   -0.03    0.00    0.15   -0.01    0.00    0.00      -0.75    5.04   -0.20
#  50   -0.49   -0.05    0.00    0.40   -0.02    0.00    0.00      -0.15    6.71   -0.28
#  51   -1.08   -0.04    0.00    0.17   -0.01    0.00    0.00      -0.96    4.19   -0.20
#  52   -1.74   -0.15    0.01    1.34   -0.03    0.00    0.00      -0.57    9.05   -0.22
#  53   -5.51   -0.02    0.00    3.32    0.14    0.00    0.00      -2.07   13.21    0.55
#  54   -1.99   -0.34    0.07    0.46   -0.09    0.00    0.00      -1.89    1.38   -0.28
#  55   -0.76   -0.71    0.55    0.81   -0.16    0.00    0.00      -0.27    1.39   -0.28
#  56   -0.48   -1.98    4.82    2.33   -0.17    0.00    0.00       4.52    3.93   -0.28
#  57   -3.16   -0.39    0.13    0.81   -0.07    0.00    0.00      -2.68    2.42   -0.22
#  58   -5.82   -0.44    0.13    2.81   -0.08    0.00    0.00      -3.41    9.61   -0.28

@<TRIPOS>MOLECULE
          T533145        13
   58    61     0     0     0



@<TRIPOS>ATOM
      1 C1          3.8640    -6.7153    91.8643 C.3        1           0.0546
      2 N1          5.0846    -7.2658    92.4589 N.pl3      1          -0.6048
      3 C2          6.0663    -7.9508    91.6142 C.3        1           0.1124
      4 C3          7.0775    -6.9352    91.0754 C.3        1          -0.1486
      5 C4          8.0610    -7.6516    90.1477 C.3        1          -0.0370
      6 N2          7.3327    -8.2597    89.0274 N.4        1          -0.3810
      7 H1          7.9903    -8.6939    88.3974 H          1           0.4273
      8 C5          6.5860    -7.2180    88.3095 C.3        1           0.0454
      9 C6          7.5470    -6.1833    87.7832 C.ar       1          -0.1665
     10 C7          7.2623    -4.8374    87.9331 C.ar       1          -0.0649
     11 C8          8.1388    -3.8808    87.4530 C.ar       1          -0.1040
     12 C9          9.3043    -4.2635    86.8215 C.ar       1          -0.0349
     13 C10         9.5980    -5.6197    86.6673 C.ar       1          -0.0049
     14 C11         8.7109    -6.5799    87.1585 C.ar       1          -0.0589
     15 C12        10.8057    -6.0241    86.0128 C.1        1           0.2223
     16 N3         11.7637    -6.3450    85.4935 N.1        1          -0.3687
     17 C13         6.3945    -9.2730    89.5256 C.3        1          -0.0138
     18 C14         5.3536    -8.6124    90.4319 C.3        1          -0.1739
     19 C15         5.3113    -7.1381    93.8246 C.ar       1           0.4543
     20 C16         6.0520    -8.1050    94.4917 C.ar       1          -0.2375
     21 C17         6.2703    -7.9637    95.8579 C.ar       1           0.3223
     22 N4          7.0091    -8.9117    96.5653 N.am       1          -0.6646
     23 C18         7.0118   -10.1990    96.1658 C.2        1           0.6238
     24 O1          6.3696   -10.5340    95.1877 O.2        1          -0.4850
     25 C19         7.7880   -11.1952    96.9090 C.2        1          -0.3120
     26 C20         8.5731   -11.0258    98.0397 C.2        1          -0.0242
     27 C21         9.1866   -12.1596    98.5155 C.2        1          -0.1938
     28 C22         8.9914   -13.3355    97.8690 C.2        1          -0.1806
     29 S1          7.9633   -12.9421    96.6000 S.3        1           0.2187
     30 C23         5.7321    -6.8487    96.5038 C.ar       1          -0.1688
     31 C24         5.0080    -5.9322    95.7733 C.ar       1           0.1678
     32 N5          4.8230    -6.0924    94.4755 N.ar       1          -0.5181
     33 H2          4.3122    -5.4287    93.9863 H          1           0.4383
     34 H3          3.2605    -6.2469    92.6417 H          1           0.0795
     35 H4          4.1294    -5.9718    91.1127 H          1           0.1003
     36 H5          3.2942    -7.5179    91.3960 H          1           0.1091
     37 H6          6.5855    -8.7098    92.1994 H          1           0.1180
     38 H7          6.5528    -6.1578    90.5200 H          1           0.1325
     39 H8          7.6214    -6.4862    91.9065 H          1           0.1229
     40 H9          8.7846    -6.9333    89.7623 H          1           0.1437
     41 H10         8.5839    -8.4290    90.7046 H          1           0.1483
     42 H11         6.0445    -7.6676    87.4772 H          1           0.1384
     43 H12         5.8784    -6.7441    88.9896 H          1           0.1487
     44 H13         6.3514    -4.5323    88.4267 H          1           0.1428
     45 H14         7.9103    -2.8321    87.5727 H          1           0.1525
     46 H15         9.9876    -3.5157    86.4469 H          1           0.1501
     47 H16         8.9338    -7.6307    87.0460 H          1           0.1375
     48 H17         5.8921    -9.7475    88.6825 H          1           0.1275
     49 H18         6.9419   -10.0267    90.0917 H          1           0.1426
     50 H19         4.6597    -9.3678    90.8009 H          1           0.1257
     51 H20         4.8056    -7.8578    89.8679 H          1           0.1026
     52 H21         6.4521    -8.9542    93.9577 H          1           0.1825
     53 H22         7.5209    -8.6448    97.3448 H          1           0.4308
     54 H23         8.6946   -10.0640    98.5158 H          1           0.1566
     55 H24         9.8159   -12.1147    99.3922 H          1           0.1521
     56 H25         9.3997   -14.3043    98.1163 H          1           0.2009
     57 H26         5.8815    -6.7068    97.5641 H          1           0.1969
     58 H27         4.5896    -5.0681    96.2680 H          1           0.2164
@<TRIPOS>BOND
     1    1    2 1
     2    1   34 1
     3    1   35 1
     4    1   36 1
     5    2    3 1
     6    2   19 1
     7    3   18 1
     8    3    4 1
     9    3   37 1
    10    4    5 1
    11    4   38 1
    12    4   39 1
    13    5    6 1
    14    5   40 1
    15    5   41 1
    16    6    7 1
    17    6    8 1
    18    6   17 1
    19    8    9 1
    20    8   42 1
    21    8   43 1
    22    9   14 ar
    23    9   10 ar
    24   10   11 ar
    25   10   44 1
    26   11   12 ar
    27   11   45 1
    28   12   13 ar
    29   12   46 1
    30   13   14 ar
    31   13   15 1
    32   14   47 1
    33   15   16 3
    34   17   18 1
    35   17   48 1
    36   17   49 1
    37   18   50 1
    38   18   51 1
    39   19   32 ar
    40   19   20 ar
    41   20   21 ar
    42   20   52 1
    43   21   22 1
    44   21   30 ar
    45   22   23 am
    46   22   53 1
    47   23   24 2
    48   23   25 1
    49   25   29 1
    50   25   26 2
    51   26   27 1
    52   26   54 1
    53   27   28 2
    54   27   55 1
    55   28   29 1
    56   28   56 1
    57   30   31 ar
    58   30   57 1
    59   31   32 ar
    60   31   58 1
    61   32   33 1
##########                 Name:              T526062
##########          Protonation:                   97
##########               SMILES:   CSc1c2ccccc2[nH]c1C[NH2+]CCCNc3cc(=O)c4ccccc4[nH]3
##########            Long Name:   fanyl-1H-indol-2-yl)methyl-[3-[(4-oxo-1H-quinolin-2-yl)amino]propyl]ammonium
##########          FlexRecCode: 1
##########               Number:                   75
##########   Ligand Source File: /raidb/db2/rgc/tcams/tcams-0000118.db2.gz
##########           GlobalRank: 447
##########                 Rank:                    1
##########               Setnum:                  103
##########             Matchnum:                 1916
##########                Cloud:                    1
##########        Electrostatic:           -43.908127
##########        Van der Waals:           -27.523312
##########  Ligand Polar Desolv:            10.983603
########## Ligand Apolar Desolv:            -3.390583
##########      Internal Energy:             0.000000
##########      Receptor Energy: 0.0
########## Receptor Desolvation:             0.000000
########## Receptor Hydrophobic:             0.000000
##########         Total Energy: -63.84
##########        Ligand Charge:             1.000000
##########            Arbitrary:    +999.9990
##########     heavy atom count:   28
##########           pose count:    1
##########        Ligand Energy:             0.000000
# num electro vdwattr vdwrepu polsolv apolsol rdesolv rhydroe totalscore fullpol fullapo
#   1    0.23   -0.14    0.00   -0.27    0.00    0.00    0.00      -0.18   -3.14    0.03
#   2    0.21   -0.25    0.00   -0.17   -0.05    0.00    0.00      -0.25   -2.78   -0.80
#   3    0.54   -0.42    0.02   -0.68   -0.04    0.00    0.00      -0.59   -4.42   -0.29
#   4   -0.54   -0.70    0.07    0.87   -0.15    0.00    0.00      -0.46    4.08   -0.71
#   5   -1.37   -0.43    0.04    0.56   -0.09    0.00    0.00      -1.29    2.82   -0.43
#   6   15.33   -1.18    0.47   -5.01    0.19    0.00    0.00       9.80  -19.38    0.73
#   7  -19.70   -0.07    0.01    4.94    0.13    0.00    0.00     -14.70   16.06    0.42
#   8   -8.52   -0.01    0.00    2.45    0.07    0.00    0.00      -6.01   18.77    0.57
#   9    0.26   -0.89    0.45    0.10   -0.09    0.00    0.00      -0.17    0.43   -0.40
#  10    5.39   -0.89    0.39   -1.45   -0.06    0.00    0.00       3.37   -5.73   -0.24
#  11   -2.73   -0.54    0.04    0.52   -0.10    0.00    0.00      -2.81    1.96   -0.38
#  12    7.60   -0.92    0.17   -3.74    0.41    0.00    0.00       3.51  -15.48    1.68
#  13   -3.39   -1.26    0.35    2.43   -0.60    0.00    0.00      -2.48    8.20   -2.03
#  14    0.26   -2.49    2.15   -0.90   -0.14    0.00    0.00      -1.13   -2.85   -0.45
#  15   -1.19   -1.71    0.37   -0.35   -0.11    0.00    0.00      -3.00   -0.97   -0.31
#  16    1.65   -1.82    0.40    2.32    0.18    0.00    0.00       2.72    5.66    0.44
#  17    1.43   -1.47    0.22   -0.24   -0.16    0.00    0.00      -0.22   -0.64   -0.41
#  18    0.27   -1.75    0.51   -0.12   -0.22    0.00    0.00      -1.31   -0.25   -0.46
#  19    1.99   -2.35    0.99   -0.49   -0.25    0.00    0.00      -0.12   -0.92   -0.47
#  20    1.13   -2.53    0.69   -0.42   -0.27    0.00    0.00      -1.41   -0.72   -0.47
#  21    2.79   -1.84    0.23   -1.01   -0.25    0.00    0.00      -0.07   -1.88   -0.46
#  22   -2.20   -1.39    0.15    0.84   -0.29    0.00    0.00      -2.89    2.07   -0.72
#  23    7.85   -1.08    0.06   -3.48    0.36    0.00    0.00       3.73   -9.67    1.01
#  24    8.45   -1.88    1.01   -3.99    0.35    0.00    0.00       3.95  -12.69    1.12
#  25   -0.53   -1.84    0.78    0.38   -0.26    0.00    0.00      -1.46    1.15   -0.78
#  26    0.71   -2.54    0.98   -0.73   -0.21    0.00    0.00      -1.79   -1.64   -0.48
#  27    0.29   -2.36    0.68   -0.70   -0.23    0.00    0.00      -2.32   -1.42   -0.47
#  28    0.37   -1.71    0.31   -0.63   -0.21    0.00    0.00      -1.88   -1.45   -0.47
#  29    0.16   -0.90    0.09   -0.33   -0.14    0.00    0.00      -1.13   -1.13   -0.47
#  30    0.30   -0.84    0.10   -0.41   -0.10    0.00    0.00      -0.95   -1.74   -0.44
#  31   -0.15   -0.02    0.00    0.07   -0.01    0.00    0.00      -0.11    2.19   -0.28
#  32   -0.16   -0.06    0.00    0.04   -0.02    0.00    0.00      -0.19    0.70   -0.28
#  33   -0.08   -0.06    0.00    0.25   -0.01    0.00    0.00       0.11    4.49   -0.21
#  34   -2.01   -0.05    0.00    0.42   -0.01    0.00    0.00      -1.65    9.04   -0.28
#  35   -4.35   -0.18    0.02    1.20   -0.05    0.00    0.00      -3.36    6.85   -0.28
#  36   -2.60   -0.09    0.00    0.65   -0.02    0.00    0.00      -2.06    8.14   -0.28
#  37   -5.75   -0.56    0.66    1.81   -0.07    0.00    0.00      -3.91    7.14   -0.28
#  38   -5.01   -0.84    1.53    1.06   -0.08    0.00    0.00      -3.35    3.78   -0.28
#  39   -2.30   -0.11    0.00    0.49   -0.03    0.00    0.00      -1.96    4.10   -0.28
#  40   -2.35   -0.22    0.03    0.76   -0.06    0.00    0.00      -1.85    3.66   -0.27
#  41   -1.89   -0.15    0.00    0.46   -0.04    0.00    0.00      -1.61    3.50   -0.27
#  42   -1.51   -0.02    0.00    1.57    0.09    0.00    0.00       0.13    9.95    0.57
#  43    0.59   -0.92    1.39    0.14   -0.07    0.00    0.00       1.12    0.53   -0.28
#  44   -1.06   -0.28    0.02   -0.21   -0.10    0.00    0.00      -1.63   -0.58   -0.27
#  45   -1.66   -0.68    0.69    0.46   -0.15    0.00    0.00      -1.33    0.88   -0.28
#  46   -3.48   -0.89    0.57    1.55   -0.16    0.00    0.00      -2.42    2.66   -0.28
#  47   -2.25   -0.44    0.09    2.17   -0.14    0.00    0.00      -0.56    4.50   -0.28
#  48   -6.96   -0.01    0.00    2.03    0.09    0.00    0.00      -4.86   10.98    0.46
#  49  -14.32   -0.04    0.00    3.84    0.18    0.00    0.00     -10.33   12.46    0.59
#  50   -2.38   -0.69    0.45    0.94   -0.12    0.00    0.00      -1.79    2.28   -0.28
#  51   -0.63   -0.74    0.97    0.60   -0.14    0.00    0.00       0.06    1.24   -0.28
#  52   -0.34   -0.41    0.08    0.33   -0.12    0.00    0.00      -0.46    0.79   -0.28
#  53   -0.28   -0.10    0.00    0.08   -0.03    0.00    0.00      -0.32    0.85   -0.28

@<TRIPOS>MOLECULE
          T526062        97
   53    56     0     0     0



@<TRIPOS>ATOM
      1 C1          2.3388    -7.7792    87.6370 C.3        1          -0.1504
      2 S1          4.0656    -8.3264    87.7336 S.3        1          -0.0828
      3 C2          4.9945    -6.8679    87.3947 C.2        1          -0.1464
      4 C3          5.8901    -6.2805    88.2108 C.2        1           0.0425
      5 C4          6.2655    -6.7735    89.5845 C.3        1           0.0648
      6 N1          5.3784    -6.1625    90.5834 N.4        1          -0.5112
      7 H1          5.4736    -5.1586    90.5486 H          1           0.4240
      8 H2          4.4224    -6.4168    90.3844 H          1           0.4285
      9 C5          5.7443    -6.6430    91.9224 C.3        1          -0.0083
     10 C6          4.8202    -6.0068    92.9627 C.3        1          -0.1627
     11 C7          5.2013    -6.5073    94.3575 C.3        1           0.1092
     12 N2          5.0630    -7.9649    94.4079 N.pl3      1          -0.7354
     13 C8          5.8696    -8.7028    95.2392 C.2        1           0.4735
     14 C9          6.0360   -10.0444    94.9874 C.2        1          -0.3967
     15 C10         6.8565   -10.8182    95.8238 C.2        1           0.4274
     16 O1          7.0176   -12.0110    95.6170 O.2        1          -0.5033
     17 C11         7.5185   -10.1484    96.9592 C.ar       1          -0.1890
     18 C12         8.3476   -10.8542    97.8306 C.ar       1          -0.0309
     19 C13         8.9499   -10.1962    98.8800 C.ar       1          -0.1500
     20 C14         8.7353    -8.8388    99.0725 C.ar       1          -0.0586
     21 C15         7.9185    -8.1288    98.2198 C.ar       1          -0.1717
     22 C16         7.3011    -8.7749    97.1533 C.ar       1           0.1899
     23 N3          6.4837    -8.0826    96.2831 N.pl3      1          -0.6279
     24 N4          6.4108    -5.1621    87.6010 N.pl3      1          -0.5739
     25 C17         5.8484    -5.0050    86.3543 C.ar       1           0.1152
     26 C18         6.0143    -4.0636    85.3427 C.ar       1          -0.1304
     27 C19         5.2898    -4.1773    84.1770 C.ar       1          -0.0718
     28 C20         4.3937    -5.2229    83.9994 C.ar       1          -0.1267
     29 C21         4.2153    -6.1578    84.9795 C.ar       1          -0.0628
     30 C22         4.9439    -6.0656    86.1666 C.ar       1          -0.0931
     31 H3          1.6785    -8.6235    87.8349 H          1           0.1210
     32 H4          2.1629    -6.9990    88.3775 H          1           0.0930
     33 H5          2.1372    -7.3863    86.6403 H          1           0.0525
     34 H6          6.1625    -7.8580    89.6221 H          1           0.1477
     35 H7          7.2982    -6.4989    89.7995 H          1           0.1653
     36 H8          5.6414    -7.7275    91.9600 H          1           0.1416
     37 H9          6.7770    -6.3684    92.1374 H          1           0.1441
     38 H10         4.9232    -4.9223    92.9252 H          1           0.1010
     39 H11         3.7875    -6.2814    92.7478 H          1           0.1007
     40 H12         6.2340    -6.2327    94.5724 H          1           0.0776
     41 H13         4.5430    -6.0539    95.0986 H          1           0.0787
     42 H14         4.4015    -8.4087    93.8543 H          1           0.4245
     43 H15         5.5357   -10.5025    94.1470 H          1           0.1448
     44 H16         8.5163   -11.9107    97.6837 H          1           0.1421
     45 H17         9.5922   -10.7396    99.5570 H          1           0.1348
     46 H18         9.2131    -8.3338    99.8991 H          1           0.1352
     47 H19         7.7582    -7.0727    98.3786 H          1           0.1302
     48 H20         6.3409    -7.1331    96.4209 H          1           0.4095
     49 H21         7.0749    -4.5726    87.9912 H          1           0.4237
     50 H22         6.7087    -3.2466    85.4716 H          1           0.1309
     51 H23         5.4197    -3.4456    83.3932 H          1           0.1390
     52 H24         3.8329    -5.2975    83.0794 H          1           0.1365
     53 H25         3.5162    -6.9681    84.8343 H          1           0.1347
@<TRIPOS>BOND
     1    1    2 1
     2    1   31 1
     3    1   32 1
     4    1   33 1
     5    2    3 1
     6    3   30 1
     7    3    4 2
     8    4    5 1
     9    4   24 1
    10    5    6 1
    11    5   34 1
    12    5   35 1
    13    6    7 1
    14    6    8 1
    15    6    9 1
    16    9   10 1
    17    9   36 1
    18    9   37 1
    19   10   11 1
    20   10   38 1
    21   10   39 1
    22   11   12 1
    23   11   40 1
    24   11   41 1
    25   12   13 1
    26   12   42 1
    27   13   23 1
    28   13   14 2
    29   14   15 1
    30   14   43 1
    31   15   16 2
    32   15   17 1
    33   17   22 ar
    34   17   18 ar
    35   18   19 ar
    36   18   44 1
    37   19   20 ar
    38   19   45 1
    39   20   21 ar
    40   20   46 1
    41   21   22 ar
    42   21   47 1
    43   22   23 1
    44   23   48 1
    45   24   25 1
    46   24   49 1
    47   25   30 ar
    48   25   26 ar
    49   26   27 ar
    50   26   50 1
    51   27   28 ar
    52   27   51 1
    53   28   29 ar
    54   28   52 1
    55   29   30 ar
    56   29   53 1
##########                 Name:              T534851
##########          Protonation:                   12
##########               SMILES:   (N=C(N2)[NH+]=c4[nH]c5ccccc5[nH]4)(N=C(N3)N=c6[nH]c7ccccc7[nH]6)c8cccc(c8)OC
##########            Long Name:   ydroimidazo[4,5-d]imidazol-2-yl]-(1,3-dihydrobenzimidazol-2-ylidene)ammonium
##########          FlexRecCode: 1
##########               Number:                   55
##########   Ligand Source File: /raidb/db2/rgc/tcams/tcams-0001276.db2.gz
##########           GlobalRank: 447
##########                 Rank:                    1
##########               Setnum:                  113
##########             Matchnum:                 1970
##########                Cloud:                    1
##########        Electrostatic:           -33.219257
##########        Van der Waals:           -32.081215
##########  Ligand Polar Desolv:             6.099592
########## Ligand Apolar Desolv:            -4.639417
##########      Internal Energy:             0.000000
##########      Receptor Energy: 0.0
########## Receptor Desolvation:             0.000000
########## Receptor Hydrophobic:             0.000000
##########         Total Energy: -63.84
##########        Ligand Charge:             1.000000
##########            Arbitrary:    +999.9990
##########     heavy atom count:   44
##########           pose count:    1
##########        Ligand Energy:             0.000000
# num electro vdwattr vdwrepu polsolv apolsol rdesolv rhydroe totalscore fullpol fullapo
#   1   -0.28   -0.42    0.04    0.02    0.01    0.00    0.00      -0.63    0.09    0.03
#   2    4.55   -0.33    0.01   -0.13    0.15    0.00    0.00       4.24   -0.83    0.93
#   3   -1.98   -0.44    0.02    0.04   -0.05    0.00    0.00      -2.41    0.24   -0.31
#   4    2.22   -0.57    0.04   -0.14   -0.07    0.00    0.00       1.48   -0.73   -0.40
#   5    0.75   -0.56    0.04   -0.07   -0.05    0.00    0.00       0.10   -0.37   -0.26
#   6    0.45   -0.55    0.04   -0.25   -0.07    0.00    0.00      -0.39   -1.38   -0.41
#   7    0.24   -0.54    0.03   -0.16   -0.09    0.00    0.00      -0.51   -0.83   -0.47
#   8    1.34   -0.59    0.05   -0.30   -0.08    0.00    0.00       0.43   -1.57   -0.42
#   9   -7.13   -0.41    0.03    0.95   -0.10    0.00    0.00      -6.65    4.43   -0.45
#  10    8.89   -1.06    0.21   -1.54    0.39    0.00    0.00       6.89   -5.85    1.48
#  11   -3.92   -0.50    0.05    0.51   -0.83    0.00    0.00      -4.69    3.00   -4.86
#  12    1.91   -0.67    0.11   -0.48    0.41    0.00    0.00       1.28   -2.51    2.14
#  13   -5.68   -0.90    0.19    0.65   -1.23    0.00    0.00      -6.98    2.60   -4.93
#  14    9.42   -0.83    0.07   -0.77    0.30    0.00    0.00       8.19   -2.89    1.12
#  15   -1.76   -1.10    0.08    0.07   -0.29    0.00    0.00      -3.01    0.18   -0.78
#  16    2.75   -2.15    0.75   -0.39   -0.21    0.00    0.00       0.74   -0.89   -0.48
#  17    2.85   -4.28    3.41   -0.51   -0.25    0.00    0.00       1.22   -0.97   -0.47
#  18    2.53   -2.69    0.70   -0.59   -0.27    0.00    0.00      -0.33   -1.03   -0.47
#  19    2.36   -1.93    0.59   -0.45   -0.24    0.00    0.00       0.33   -0.90   -0.48
#  20   -1.80   -1.36    0.27    0.13   -0.31    0.00    0.00      -3.06    0.33   -0.78
#  21    7.61   -1.16    0.16   -1.18    0.39    0.00    0.00       5.82   -3.60    1.20
#  22    3.49   -0.27    0.00   -0.46    0.21    0.00    0.00       2.97   -4.20    1.90
#  23   -3.04   -0.19    0.00    0.37   -0.05    0.00    0.00      -2.91    3.18   -0.45
#  24    6.30   -0.46    0.03   -1.40    0.31    0.00    0.00       4.78   -8.76    1.95
#  25  -13.74   -0.72    0.10    2.35   -1.01    0.00    0.00     -13.02   11.26   -4.84
#  26   24.94   -1.80    1.05   -3.19    0.39    0.00    0.00      21.38  -12.14    1.48
#  27   14.93   -0.91    0.13   -3.18    0.26    0.00    0.00      11.23  -12.59    1.04
#  28  -16.21   -0.02    0.00    2.78    0.12    0.00    0.00     -13.34   14.06    0.60
#  29  -10.18   -0.84    0.07    4.01   -1.32    0.00    0.00      -8.26   14.91   -4.91
#  30    3.23   -1.08    0.22   -2.54    0.28    0.00    0.00       0.11  -10.32    1.12
#  31   -0.31   -1.43    0.38    0.30   -0.24    0.00    0.00      -1.30    0.98   -0.78
#  32    0.13   -2.07    0.83   -0.64   -0.17    0.00    0.00      -1.92   -1.83   -0.48
#  33    0.37   -1.71    0.30   -0.75   -0.20    0.00    0.00      -1.99   -1.72   -0.47
#  34    0.52   -1.55    0.27   -0.83   -0.21    0.00    0.00      -1.81   -1.87   -0.47
#  35    0.80   -1.38    0.17   -0.62   -0.18    0.00    0.00      -1.22   -1.64   -0.48
#  36   -0.73   -1.18    0.13    0.57   -0.26    0.00    0.00      -1.47    1.73   -0.78
#  37    8.63   -1.09    0.11   -4.12    0.40    0.00    0.00       3.93  -12.49    1.20
#  38    0.07   -0.18    0.00    0.00   -0.02    0.00    0.00      -0.13   -0.04   -0.26
#  39    0.48   -0.20    0.01   -0.04   -0.03    0.00    0.00       0.22   -0.50   -0.40
#  40   -0.24   -0.12    0.00    0.01   -0.02    0.00    0.00      -0.37    0.15   -0.31
#  41    0.82   -0.10    0.00   -0.03    0.05    0.00    0.00       0.75   -0.55    0.93
#  42   -0.02   -0.06    0.00    0.00    0.00    0.00    0.00      -0.08    0.09    0.03
#  43    0.15   -0.08    0.00   -0.06   -0.02    0.00    0.00       0.00   -1.38   -0.42
#  44    0.06   -0.07    0.00   -0.03   -0.02    0.00    0.00      -0.06   -0.75   -0.47
#  45    0.15   -0.11    0.00   -0.07   -0.02    0.00    0.00      -0.05   -1.20   -0.41
#  46   -0.25   -0.09    0.00    0.06   -0.03    0.00    0.00      -0.30    0.61   -0.26
#  47   -0.28   -0.15    0.04    0.06   -0.03    0.00    0.00      -0.37    0.49   -0.26
#  48   -2.07   -0.23    0.04    0.16   -0.06    0.00    0.00      -2.16    0.77   -0.28
#  49   -3.18   -0.14    0.01   -0.01   -0.04    0.00    0.00      -3.35   -0.07   -0.26
#  50   -0.29   -0.11    0.01    0.34   -0.03    0.00    0.00      -0.08    3.05   -0.26
#  51   -0.38   -0.11    0.00    0.27   -0.03    0.00    0.00      -0.25    2.44   -0.28
#  52   -0.78   -0.29    0.15    0.20   -0.03    0.00    0.00      -0.76    1.22   -0.21
#  53   -5.13   -0.04    0.00    1.10    0.19    0.00    0.00      -3.88    3.50    0.60
#  54   -7.89   -0.01    0.00    0.25    0.05    0.00    0.00      -7.60    1.98    0.40
#  55   -3.60   -0.42    0.15    0.48   -0.09    0.00    0.00      -3.48    1.43   -0.28
#  56   -4.12   -1.68    2.86    1.15   -0.16    0.00    0.00      -1.94    2.00   -0.28
#  57   -3.46   -0.61    0.13    1.18   -0.16    0.00    0.00      -2.92    2.01   -0.28
#  58   -3.31   -0.41    0.09    0.66   -0.10    0.00    0.00      -3.06    1.76   -0.28
#  59   -4.48   -0.02    0.00    1.08    0.17    0.00    0.00      -3.25    3.81    0.60
#  60  -23.42   -0.14    0.04    2.85    0.18    0.00    0.00     -20.49    9.35    0.60
#  61   -1.83   -0.01    0.00    1.12    0.06    0.00    0.00      -0.66    7.60    0.40
#  62   -0.04   -0.57    0.33    0.68   -0.08    0.00    0.00       0.32    2.40   -0.28
#  63   -1.19   -0.44    0.15    1.08   -0.11    0.00    0.00      -0.51    2.64   -0.28
#  64   -1.18   -0.34    0.07    1.06   -0.10    0.00    0.00      -0.48    3.09   -0.28
#  65   -1.98   -0.27    0.02    1.08   -0.07    0.00    0.00      -1.22    4.18   -0.28
#  66   -8.83   -0.02    0.00    3.27    0.14    0.00    0.00      -5.43   13.92    0.60
#  67   -0.95   -0.05    0.00   -0.01   -0.01    0.00    0.00      -1.02   -0.25   -0.26
#  68   -0.05   -0.02    0.00    0.01   -0.01    0.00    0.00      -0.06    0.56   -0.26
#  69   -0.07   -0.02    0.00    0.02   -0.01    0.00    0.00      -0.08    0.74   -0.28
#  70   -0.05   -0.01    0.00    0.01    0.00    0.00    0.00      -0.06    0.47   -0.26
#  71   -0.09   -0.01    0.00    0.02    0.00    0.00    0.00      -0.08    1.11   -0.21
#  72   -0.11   -0.01    0.00    0.04   -0.01    0.00    0.00      -0.08    2.17   -0.28
#  73   -0.13   -0.02    0.00    0.07   -0.01    0.00    0.00      -0.09    2.34   -0.26

@<TRIPOS>MOLECULE
          T534851        12
   73    80     0     0     0



@<TRIPOS>ATOM
      1 C1          9.3307    -7.1550    86.8060 C.3        1           0.0253
      2 O1          8.6222    -7.0856    88.0452 O.3        1          -0.3118
      3 C2          7.2769    -6.9058    87.9776 C.ar       1           0.1386
      4 C3          6.5273    -6.8236    89.1423 C.ar       1          -0.1171
      5 C4          5.1602    -6.6404    89.0709 C.ar       1          -0.0540
      6 C5          4.5383    -6.5390    87.8399 C.ar       1          -0.1321
      7 C6          5.2829    -6.6209    86.6780 C.ar       1          -0.0735
      8 C7          6.6515    -6.7984    86.7441 C.ar       1          -0.1927
      9 C8          4.3455    -6.5516    90.3356 C.3        1           0.3936
     10 N1          3.1137    -5.7647    90.1712 N.pl3      1          -0.7236
     11 C9          2.0423    -6.5565    90.5053 C.2        1           0.6155
     12 N2          0.7675    -6.1253    90.4545 N.2        1          -0.6178
     13 C10         0.2181    -5.5586    91.5162 C.2        1           0.6581
     14 N3          0.8388    -5.3505    92.7122 N.pl3      1          -0.6057
     15 C11        -0.0661    -4.7323    93.5711 C.ar       1           0.0802
     16 C12         0.0242    -4.2980    94.8859 C.ar       1          -0.1004
     17 C13        -1.0660    -3.7053    95.4912 C.ar       1          -0.0998
     18 C14        -2.2497    -3.5423    94.7917 C.ar       1          -0.1018
     19 C15        -2.3498    -3.9715    93.4832 C.ar       1          -0.0967
     20 C16        -1.2594    -4.5680    92.8658 C.ar       1           0.0831
     21 N4         -1.0579    -5.0837    91.5884 N.pl3      1          -0.5931
     22 N5          2.3686    -7.7599    90.8743 N.2        1          -0.6609
     23 C17         3.8267    -7.9273    90.8270 C.3        1           0.3388
     24 N6          4.3719    -8.0472    92.1852 N.2        1          -0.5864
     25 C18         5.0678    -6.9904    92.4849 C.2        1           0.5841
     26 N7          5.1187    -6.0522    91.4830 N.pl3      1          -0.7264
     27 N8          5.6836    -6.8301    93.6718 N.pl3      1          -0.5736
     28 H1          5.8085    -5.9401    94.0369 H          1           0.4548
     29 C19         6.1181    -7.8862    94.3396 C.cat      1           0.6583
     30 N9          6.0074    -9.1818    93.9298 N.pl3      1          -0.5245
     31 C20         6.5826    -9.9967    94.9012 C.ar       1           0.0774
     32 C21         6.7475   -11.3706    95.0058 C.ar       1          -0.0795
     33 C22         7.3719   -11.9062    96.1148 C.ar       1          -0.0782
     34 C23         7.8339   -11.0782    97.1236 C.ar       1          -0.0767
     35 C24         7.6741    -9.7100    97.0292 C.ar       1          -0.0852
     36 C25         7.0488    -9.1619    95.9182 C.ar       1           0.0808
     37 N10         6.7536    -7.8533    95.5454 N.pl3      1          -0.5638
     38 C26         4.2357    -9.0620    89.9235 C.ar       1          -0.0185
     39 C27         5.4235    -9.7305    90.1494 C.ar       1          -0.1116
     40 C28         5.7992   -10.7751    89.3177 C.ar       1           0.1324
     41 O2          6.9668   -11.4346    89.5383 O.3        1          -0.3139
     42 C29         7.2895   -12.4997    88.6418 C.3        1           0.0265
     43 C30         4.9805   -11.1459    88.2605 C.ar       1          -0.1977
     44 C31         3.7940   -10.4744    88.0388 C.ar       1          -0.0792
     45 C32         3.4192    -9.4368    88.8727 C.ar       1          -0.1326
     46 H2         10.3930    -7.2997    87.0025 H          1           0.0585
     47 H3          8.9527    -7.9912    86.2178 H          1           0.0572
     48 H4          9.1866    -6.2270    86.2527 H          1           0.1056
     49 H5          7.0125    -6.9032    90.1040 H          1           0.1321
     50 H6          3.4692    -6.3957    87.7862 H          1           0.1173
     51 H7          4.7948    -6.5417    85.7178 H          1           0.1301
     52 H8          7.2332    -6.8580    85.8361 H          1           0.1333
     53 H9          3.0660    -4.8418    89.8764 H          1           0.4233
     54 H10         1.7531    -5.5919    92.9278 H          1           0.4529
     55 H11         0.9457    -4.4236    95.4350 H          1           0.1332
     56 H12        -0.9955    -3.3677    96.5146 H          1           0.1389
     57 H13        -3.0984    -3.0778    95.2716 H          1           0.1402
     58 H14        -3.2751    -3.8434    92.9411 H          1           0.1369
     59 H15        -1.7132    -5.1037    90.8734 H          1           0.4460
     60 H16         5.5863    -5.2034    91.5248 H          1           0.4242
     61 H17         5.5982    -9.4840    93.1039 H          1           0.4710
     62 H18         6.3879   -12.0199    94.2213 H          1           0.1509
     63 H19         7.5000   -12.9755    96.1958 H          1           0.1550
     64 H20         8.3209   -11.5042    97.9883 H          1           0.1549
     65 H21         8.0352    -9.0674    97.8186 H          1           0.1501
     66 H22         6.9623    -7.0557    96.0565 H          1           0.4581
     67 H23         6.0592    -9.4398    90.9728 H          1           0.1276
     68 H24         8.2442   -12.9400    88.9294 H          1           0.0573
     69 H25         6.5104   -13.2607    88.6864 H          1           0.1037
     70 H26         7.3599   -12.1110    87.6260 H          1           0.0558
     71 H27         5.2709   -11.9587    87.6114 H          1           0.1298
     72 H28         3.1566   -10.7624    87.2159 H          1           0.1256
     73 H29         2.4890    -8.9159    88.7003 H          1           0.1118
@<TRIPOS>BOND
     1    1    2 1
     2    1   46 1
     3    1   47 1
     4    1   48 1
     5    2    3 1
     6    3    8 ar
     7    3    4 ar
     8    4    5 ar
     9    4   49 1
    10    5    6 ar
    11    5    9 1
    12    6    7 ar
    13    6   50 1
    14    7    8 ar
    15    7   51 1
    16    8   52 1
    17    9   23 1
    18    9   26 1
    19    9   10 1
    20   10   11 1
    21   10   53 1
    22   11   12 1
    23   11   22 2
    24   12   13 2
    25   13   21 1
    26   13   14 1
    27   14   15 1
    28   14   54 1
    29   15   20 ar
    30   15   16 ar
    31   16   17 ar
    32   16   55 1
    33   17   18 ar
    34   17   56 1
    35   18   19 ar
    36   18   57 1
    37   19   20 ar
    38   19   58 1
    39   20   21 1
    40   21   59 1
    41   22   23 1
    42   23   24 1
    43   23   38 1
    44   24   25 2
    45   25   26 1
    46   25   27 1
    47   26   60 1
    48   27   28 1
    49   27   29 2
    50   29   37 1
    51   29   30 1
    52   30   31 1
    53   30   61 1
    54   31   36 ar
    55   31   32 ar
    56   32   33 ar
    57   32   62 1
    58   33   34 ar
    59   33   63 1
    60   34   35 ar
    61   34   64 1
    62   35   36 ar
    63   35   65 1
    64   36   37 1
    65   37   66 1
    66   38   45 ar
    67   38   39 ar
    68   39   40 ar
    69   39   67 1
    70   40   41 1
    71   40   43 ar
    72   41   42 1
    73   42   68 1
    74   42   69 1
    75   42   70 1
    76   43   44 ar
    77   43   71 1
    78   44   45 ar
    79   44   72 1
    80   45   73 1
##########                 Name:              T538290
##########          Protonation:                   44
##########               SMILES:   CC(C)(C)c1ccc(cc1)CNC(=O)c2cc(ccc2O)C[NH2+]C3CC[NH2+]CC3
##########            Long Name:   henyl)methylcarbamoyl]-4-hydroxy-phenyl]methyl-piperidin-1-ium-4-yl-ammonium
##########          FlexRecCode: 1
##########               Number:                   71
##########   Ligand Source File: /raidb/db2/rgc/tcams/tcams-0001751.db2.gz
##########           GlobalRank: 448
##########                 Rank:                    1
##########               Setnum:                  302
##########             Matchnum:                  907
##########                Cloud:                    1
##########        Electrostatic:           -57.263016
##########        Van der Waals:           -19.917871
##########  Ligand Polar Desolv:            14.669523
########## Ligand Apolar Desolv:            -1.316649
##########      Internal Energy:             0.000000
##########      Receptor Energy: 0.0
########## Receptor Desolvation:             0.000000
########## Receptor Hydrophobic:             0.000000
##########         Total Energy: -63.83
##########        Ligand Charge:             2.000000
##########            Arbitrary:    +999.9990
##########     heavy atom count:   29
##########           pose count:    1
##########        Ligand Energy:             0.000000
# num electro vdwattr vdwrepu polsolv apolsol rdesolv rhydroe totalscore fullpol fullapo
#   1    0.16   -0.21    0.01   -0.31   -0.02    0.00    0.00      -0.38   -2.35   -0.17
#   2    0.04   -0.16    0.00   -0.05   -0.01    0.00    0.00      -0.18   -0.48   -0.07
#   3    0.13   -0.09    0.00   -0.13   -0.01    0.00    0.00      -0.11   -2.01   -0.17
#   4    0.18   -0.18    0.01   -0.28   -0.02    0.00    0.00      -0.29   -2.23   -0.13
#   5    0.09   -0.49    0.04   -0.20   -0.06    0.00    0.00      -0.62   -1.09   -0.34
#   6    0.26   -0.67    0.09   -0.46   -0.09    0.00    0.00      -0.87   -2.23   -0.43
#   7    0.44   -1.05    0.35   -0.42   -0.11    0.00    0.00      -0.80   -1.73   -0.46
#   8    0.55   -1.18    0.32   -0.51   -0.11    0.00    0.00      -0.94   -1.72   -0.37
#   9   -3.41   -0.88    0.17    0.86   -0.15    0.00    0.00      -3.41    2.58   -0.44
#  10   12.69   -0.69    0.02   -3.51    0.62    0.00    0.00       9.14  -13.15    2.32
#  11   -6.10   -0.98    0.16    2.36   -0.19    0.00    0.00      -4.75    7.97   -0.65
#  12    2.19   -2.36    1.94   -2.08   -0.12    0.00    0.00      -0.42   -4.97   -0.28
#  13    2.10   -0.80    0.09   -1.21   -0.10    0.00    0.00       0.08   -5.03   -0.41
#  14    0.57   -0.68    0.07   -0.15   -0.09    0.00    0.00      -0.28   -0.74   -0.43
#  15    4.46   -0.80    0.08   -1.01   -0.09    0.00    0.00       2.64   -4.07   -0.37
#  16   -1.02   -0.59    0.09    0.84   -0.10    0.00    0.00      -0.79    3.44   -0.40
#  17   16.93   -1.53    1.19   -7.15    0.17    0.00    0.00       9.61  -26.70    0.63
#  18  -13.52   -0.02    0.00    4.04    0.09    0.00    0.00      -9.40   24.61    0.56
#  19  -23.43   -0.15    0.06    8.37    0.19    0.00    0.00     -14.97   25.08    0.56
#  20   -0.30   -0.57    0.08    0.57   -0.05    0.00    0.00      -0.27    2.43   -0.23
#  21    3.96   -1.21    0.51   -2.99   -0.06    0.00    0.00       0.21   -9.89   -0.21
#  22    0.02   -0.44    0.04    0.03   -0.10    0.00    0.00      -0.45    0.12   -0.47
#  23    9.45   -0.54    0.03   -6.37    0.22    0.00    0.00       2.79  -26.20    0.89
#  24  -11.22   -0.02    0.00    5.49    0.13    0.00    0.00      -5.62   24.54    0.56
#  25   -6.22   -0.01    0.00    1.98    0.05    0.00    0.00      -4.20   23.88    0.57
#  26    0.02   -0.32    0.01    0.04   -0.09    0.00    0.00      -0.34    0.22   -0.47
#  27    4.19   -0.60    0.08   -2.16   -0.06    0.00    0.00       1.46   -9.11   -0.24
#  28    1.40   -1.20    0.17   -0.09   -0.16    0.00    0.00       0.12   -0.26   -0.46
#  29    3.63   -1.27    0.17   -2.06   -0.18    0.00    0.00       0.28   -5.12   -0.46
#  30   -4.40   -1.00    0.06    0.42   -0.11    0.00    0.00      -5.03    1.21   -0.31
#  31   10.32   -1.53    0.24   -3.08    0.24    0.00    0.00       6.18   -6.53    0.50
#  32    0.21   -1.35    0.32   -0.56   -0.16    0.00    0.00      -1.54   -1.65   -0.46
#  33    0.19   -0.89    0.16   -0.57   -0.11    0.00    0.00      -1.22   -2.11   -0.40
#  34   -0.08   -0.12    0.02    0.16   -0.03    0.00    0.00      -0.06    1.38   -0.25
#  35   -0.05   -0.03    0.00    0.05   -0.01    0.00    0.00      -0.03    1.71   -0.28
#  36   -0.07   -0.08    0.01    0.07   -0.02    0.00    0.00      -0.10    0.77   -0.28
#  37   -0.06   -0.02    0.00    0.02   -0.01    0.00    0.00      -0.07    0.67   -0.28
#  38   -0.04   -0.05    0.00    0.01   -0.01    0.00    0.00      -0.09    0.25   -0.28
#  39   -0.04   -0.01    0.00    0.02   -0.01    0.00    0.00      -0.04    0.94   -0.25
#  40   -0.07   -0.04    0.00    0.06   -0.01    0.00    0.00      -0.06    1.45   -0.26
#  41   -0.06   -0.04    0.00    0.02   -0.01    0.00    0.00      -0.09    0.46   -0.26
#  42   -0.09   -0.10    0.01    0.08   -0.03    0.00    0.00      -0.13    0.67   -0.28
#  43   -0.23   -0.10    0.00    0.26   -0.02    0.00    0.00      -0.09    2.11   -0.20
#  44   -1.38   -0.18    0.03    0.34   -0.04    0.00    0.00      -1.23    2.20   -0.28
#  45   -2.37   -0.33    0.09    0.12   -0.08    0.00    0.00      -2.57    0.42   -0.28
#  46   -2.22   -0.47    0.21    0.10   -0.10    0.00    0.00      -2.48    0.27   -0.28
#  47   -7.64   -0.01    0.00    1.16    0.04    0.00    0.00      -6.45   11.44    0.43
#  48   -1.10   -0.12    0.01    0.84   -0.02    0.00    0.00      -0.39    7.95   -0.22
#  49   -2.95   -0.42    0.24    2.55   -0.05    0.00    0.00      -0.63   10.79   -0.22
#  50   -1.87   -0.08    0.00    0.78   -0.02    0.00    0.00      -1.20    9.95   -0.28
#  51   -2.37   -0.06    0.00    0.68   -0.02    0.00    0.00      -1.77   10.51   -0.28
#  52   -3.56   -0.90    1.23    2.86   -0.11    0.00    0.00      -0.48    7.54   -0.28
#  53   -2.60   -0.95    1.78    2.14   -0.07    0.00    0.00       0.30    7.20   -0.22
#  54   -1.79   -0.14    0.01    1.00   -0.04    0.00    0.00      -0.97    6.48   -0.28
#  55   -1.37   -0.06    0.00    0.44   -0.02    0.00    0.00      -1.00    7.31   -0.28
#  56   -2.51   -0.12    0.00    0.70   -0.03    0.00    0.00      -1.96    5.95   -0.28
#  57   -1.49   -0.05    0.00    0.33   -0.01    0.00    0.00      -1.22    7.20   -0.28
#  58   -2.43   -0.11    0.00    0.65   -0.03    0.00    0.00      -1.91    5.80   -0.28
#  59   -4.19   -0.52    0.24    2.02   -0.08    0.00    0.00      -2.52    6.83   -0.28
#  60   -4.34   -0.44    0.17    3.25   -0.09    0.00    0.00      -1.46    9.71   -0.28
#  61   -3.71   -0.61    0.58    0.72   -0.09    0.00    0.00      -3.11    2.26   -0.28
#  62  -10.52   -0.07    0.00    2.04    0.52    0.00    0.00      -8.03    4.78    1.22
#  63   -0.46   -0.47    0.16    1.02   -0.10    0.00    0.00       0.14    2.79   -0.28
#  64   -0.15   -0.28    0.17    0.52   -0.05    0.00    0.00       0.22    2.57   -0.24

@<TRIPOS>MOLECULE
          T538290        44
   64    66     0     0     0



@<TRIPOS>ATOM
      1 C1         -2.5784   -10.9924    89.7957 C.3        1          -0.1366
      2 C2         -1.4130   -10.0511    89.4845 C.3        1          -0.0344
      3 C3         -0.1879   -10.8728    89.0788 C.3        1          -0.1431
      4 C4         -1.8040    -9.1179    88.3368 C.3        1          -0.1478
      5 C5         -1.0871    -9.2335    90.7077 C.ar       1          -0.0517
      6 C6         -1.1757    -7.8550    90.6615 C.ar       1          -0.1218
      7 C7         -0.8767    -7.1050    91.7836 C.ar       1          -0.0964
      8 C8         -0.4894    -7.7340    92.9522 C.ar       1          -0.1238
      9 C9         -0.1629    -6.9164    94.1753 C.3        1           0.1611
     10 N1          1.2631    -6.5808    94.1721 N.am       1          -0.7194
     11 C10         2.1506    -7.4051    94.7630 C.2        1           0.5458
     12 O1          1.7679    -8.4274    95.2987 O.2        1          -0.4977
     13 C11         3.5867    -7.0671    94.7599 C.ar       1          -0.1568
     14 C12         4.4078    -7.4981    93.7150 C.ar       1          -0.0423
     15 C13         5.7481    -7.1787    93.7177 C.ar       1          -0.1992
     16 C14         6.6324    -7.6440    92.5897 C.3        1           0.0468
     17 N2          6.6435    -6.6305    91.5262 N.4        1          -0.5079
     18 H1          5.7049    -6.4929    91.1829 H          1           0.4372
     19 H2          6.9979    -5.7605    91.8945 H          1           0.4308
     20 C15         7.5056    -7.0840    90.4267 C.3        1           0.0126
     21 C16         8.9709    -6.8120    90.7790 C.3        1          -0.1744
     22 C17         9.8568    -7.2132    89.5976 C.3        1          -0.0017
     23 N3          9.4834    -6.4306    88.4133 N.4        1          -0.5117
     24 H3          9.5601    -5.4468    88.6236 H          1           0.4337
     25 H4         10.1032    -6.6597    87.6509 H          1           0.4483
     26 C18         8.1017    -6.7406    88.0268 C.3        1          -0.0013
     27 C19         7.1482    -6.3211    89.1478 C.3        1          -0.1733
     28 C20         6.2865    -6.4313    94.7527 C.ar       1          -0.0509
     29 C21         5.4865    -5.9990    95.7915 C.ar       1          -0.1491
     30 C22         4.1340    -6.3068    95.8022 C.ar       1           0.2209
     31 O2          3.3457    -5.8782    96.8196 O.3        1          -0.4705
     32 C23        -0.4021    -9.1127    92.9988 C.ar       1          -0.0987
     33 C24        -0.7048    -9.8628    91.8778 C.ar       1          -0.1179
     34 H5         -3.4512   -10.4069    90.0847 H          1           0.0557
     35 H6         -2.8141   -11.5837    88.9110 H          1           0.0516
     36 H7         -2.2999   -11.6572    90.6134 H          1           0.0635
     37 H8          0.6423   -10.2023    88.8571 H          1           0.0641
     38 H9          0.0906   -11.5376    89.8966 H          1           0.0598
     39 H10        -0.4237   -11.4641    88.1940 H          1           0.0577
     40 H11        -0.9739    -8.4472    88.1149 H          1           0.0569
     41 H12        -2.0397    -9.7093    87.4519 H          1           0.0618
     42 H13        -2.6769    -8.5325    88.6255 H          1           0.0635
     43 H14        -1.4782    -7.3636    89.7486 H          1           0.1316
     44 H15        -0.9453    -6.0278    91.7473 H          1           0.1240
     45 H16        -0.7521    -5.9994    94.1672 H          1           0.0828
     46 H17        -0.3989    -7.4919    95.0705 H          1           0.0830
     47 H18         1.5685    -5.7653    93.7448 H          1           0.3934
     48 H19         3.9926    -8.0813    92.9063 H          1           0.1371
     49 H20         7.6465    -7.7927    92.9606 H          1           0.1421
     50 H21         6.2497    -8.5838    92.1918 H          1           0.1442
     51 H22         7.3604    -8.1523    90.2664 H          1           0.1582
     52 H23         9.1036    -5.7508    90.9896 H          1           0.1146
     53 H24         9.2485    -7.3954    91.6568 H          1           0.1377
     54 H25        10.9008    -7.0209    89.8453 H          1           0.1551
     55 H26         9.7236    -8.2745    89.3881 H          1           0.1446
     56 H27         7.8499    -6.1995    87.1148 H          1           0.1552
     57 H28         8.0058    -7.8120    87.8508 H          1           0.1446
     58 H29         6.1231    -6.5539    88.8597 H          1           0.1380
     59 H30         7.2431    -5.2498    89.3244 H          1           0.1139
     60 H31         7.3381    -6.1858    94.7470 H          1           0.1399
     61 H32         5.9134    -5.4167    96.5947 H          1           0.1539
     62 H33         3.8144    -5.3618    97.4895 H          1           0.4161
     63 H34        -0.0999    -9.6041    93.9119 H          1           0.1224
     64 H35        -0.6398   -10.9401    91.9152 H          1           0.1246
@<TRIPOS>BOND
     1    1    2 1
     2    1   34 1
     3    1   35 1
     4    1   36 1
     5    2    3 1
     6    2    4 1
     7    2    5 1
     8    3   37 1
     9    3   38 1
    10    3   39 1
    11    4   40 1
    12    4   41 1
    13    4   42 1
    14    5   33 ar
    15    5    6 ar
    16    6    7 ar
    17    6   43 1
    18    7    8 ar
    19    7   44 1
    20    8    9 1
    21    8   32 ar
    22    9   10 1
    23    9   45 1
    24    9   46 1
    25   10   11 am
    26   10   47 1
    27   11   12 2
    28   11   13 1
    29   13   30 ar
    30   13   14 ar
    31   14   15 ar
    32   14   48 1
    33   15   16 1
    34   15   28 ar
    35   16   17 1
    36   16   49 1
    37   16   50 1
    38   17   18 1
    39   17   19 1
    40   17   20 1
    41   20   27 1
    42   20   21 1
    43   20   51 1
    44   21   22 1
    45   21   52 1
    46   21   53 1
    47   22   23 1
    48   22   54 1
    49   22   55 1
    50   23   24 1
    51   23   25 1
    52   23   26 1
    53   26   27 1
    54   26   56 1
    55   26   57 1
    56   27   58 1
    57   27   59 1
    58   28   29 ar
    59   28   60 1
    60   29   30 ar
    61   29   61 1
    62   30   31 1
    63   31   62 1
    64   32   33 ar
    65   32   63 1
    66   33   64 1
##########                 Name:              T525587
##########          Protonation:                   65
##########               SMILES:   c1ccc(cc1)CCCNC(=[NH2+])c2cccc(n2)C(=[NH2+])NCCCc3ccccc3
##########            Long Name:   phenylpropylamino)methyl]-2-pyridyl]-(3-phenylpropylamino)methylene]ammonium
##########          FlexRecCode: 1
##########               Number:                   71
##########   Ligand Source File: /raidb/db2/rgc/tcams/tcams-0000097.db2.gz
##########           GlobalRank: 450
##########                 Rank:                    1
##########               Setnum:                  389
##########             Matchnum:                 4865
##########                Cloud:                    1
##########        Electrostatic:           -55.425411
##########        Van der Waals:           -19.507196
##########  Ligand Polar Desolv:            14.623988
########## Ligand Apolar Desolv:            -3.501482
##########      Internal Energy:             0.000000
##########      Receptor Energy: 0.0
########## Receptor Desolvation:             0.000000
########## Receptor Hydrophobic:             0.000000
##########         Total Energy: -63.81
##########        Ligand Charge:             2.000000
##########            Arbitrary:    +999.9990
##########     heavy atom count:   30
##########           pose count:    1
##########        Ligand Energy:             0.000000
# num electro vdwattr vdwrepu polsolv apolsol rdesolv rhydroe totalscore fullpol fullapo
#   1   15.92   -4.65    9.07  -10.89    0.31    0.00    0.00       9.75  -29.50    0.84
#   2   -4.23   -0.05    0.00    5.78    0.13    0.00    0.00       1.64   20.39    0.45
#   3  -17.15   -0.17    0.03    8.25    0.21    0.00    0.00      -8.83   19.20    0.48
#   4   -9.83   -1.25    0.33    7.89   -0.70    0.00    0.00      -3.56   24.28   -2.16
#   5    4.21   -0.61    0.03   -6.49    0.43    0.00    0.00      -2.42  -25.25    1.67
#   6   -0.10   -0.33    0.01    0.61   -0.08    0.00    0.00       0.12    3.06   -0.38
#   7    0.34   -0.80    0.20   -1.08   -0.06    0.00    0.00      -1.41   -3.70   -0.22
#   8    0.02   -0.43    0.04   -0.45   -0.05    0.00    0.00      -0.87   -2.16   -0.23
#   9    0.08   -0.46    0.02   -0.26   -0.07    0.00    0.00      -0.68   -1.43   -0.36
#  10    0.09   -0.32    0.01   -0.27   -0.05    0.00    0.00      -0.54   -2.33   -0.46
#  11    0.10   -0.57    0.07   -0.37   -0.08    0.00    0.00      -0.86   -2.20   -0.47
#  12    0.09   -1.34    0.45   -0.59   -0.12    0.00    0.00      -1.51   -2.26   -0.47
#  13    0.13   -1.51    0.40   -0.69   -0.15    0.00    0.00      -1.83   -2.20   -0.47
#  14    0.14   -0.89    0.07   -0.72   -0.14    0.00    0.00      -1.53   -2.32   -0.46
#  15   -2.57   -1.18    0.14    1.23   -0.26    0.00    0.00      -2.64    3.47   -0.74
#  16    2.36   -2.54    0.89   -1.29   -0.21    0.00    0.00      -0.79   -2.80   -0.45
#  17    1.55   -3.74    2.34   -1.53   -0.23    0.00    0.00      -1.60   -3.18   -0.48
#  18    2.64   -3.83    3.61   -1.12   -0.18    0.00    0.00       1.13   -2.81   -0.45
#  19   -2.94   -1.45    0.46    1.03   -0.22    0.00    0.00      -3.13    3.47   -0.74
#  20    8.76   -0.82    0.08   -4.51    0.43    0.00    0.00       3.94  -16.85    1.60
#  21  -14.75   -0.96    0.18    5.80   -0.52    0.00    0.00     -10.25   24.28   -2.16
#  22   10.86   -0.36    0.01   -4.45    0.13    0.00    0.00       6.19  -29.50    0.84
#  23   -5.06    0.00    0.00    0.79    0.02    0.00    0.00      -4.26   19.20    0.48
#  24   -5.67    0.00    0.00    0.94    0.02    0.00    0.00      -4.71   20.39    0.45
#  25   23.33   -2.56    2.43   -7.13    0.47    0.00    0.00      16.55  -25.25    1.67
#  26   -1.63   -0.54    0.11    0.63   -0.08    0.00    0.00      -1.51    3.06   -0.38
#  27    3.18   -0.65    0.11   -0.94   -0.06    0.00    0.00       1.65   -3.70   -0.22
#  28    0.84   -0.53    0.07   -0.52   -0.06    0.00    0.00      -0.20   -2.16   -0.23
#  29    1.06   -1.01    0.12   -0.43   -0.11    0.00    0.00      -0.37   -1.43   -0.36
#  30    0.91   -1.18    0.16   -0.72   -0.14    0.00    0.00      -0.96   -2.33   -0.46
#  31    1.05   -1.28    0.15   -0.78   -0.17    0.00    0.00      -1.02   -2.20   -0.47
#  32    1.38   -1.57    0.23   -1.04   -0.22    0.00    0.00      -1.21   -2.26   -0.47
#  33    1.58   -1.52    0.17   -1.03   -0.22    0.00    0.00      -1.02   -2.20   -0.47
#  34    1.64   -1.07    0.07   -0.87   -0.17    0.00    0.00      -0.40   -2.32   -0.46
#  35   -3.46   -0.01    0.00    1.54    0.05    0.00    0.00      -1.88   17.45    0.53
#  36   -0.08   -0.05    0.00    0.26   -0.01    0.00    0.00       0.11    5.03   -0.27
#  37   -0.18   -0.10    0.01    0.53   -0.03    0.00    0.00       0.23    5.04   -0.27
#  38   -0.91   -0.47    0.29    0.70   -0.08    0.00    0.00      -0.47    2.39   -0.28
#  39   -0.05   -0.42    0.18    0.68   -0.08    0.00    0.00       0.31    2.38   -0.28
#  40   -0.01   -0.18    0.03    0.46   -0.05    0.00    0.00       0.24    2.67   -0.28
#  41    0.02   -0.08    0.01    0.26   -0.03    0.00    0.00       0.18    2.68   -0.28
#  42   -0.07   -0.03    0.00    0.10   -0.01    0.00    0.00       0.00    3.30   -0.28
#  43   -0.10   -0.09    0.00    0.14   -0.03    0.00    0.00      -0.06    1.51   -0.28
#  44   -0.06   -0.40    0.16    0.24   -0.07    0.00    0.00      -0.13    0.95   -0.28
#  45   -0.13   -0.60    0.43    0.48   -0.09    0.00    0.00       0.08    1.50   -0.28
#  46   -0.17   -0.24    0.03    1.08   -0.09    0.00    0.00       0.61    3.29   -0.28
#  47   -7.50   -1.19    1.33    4.49   -0.11    0.00    0.00      -2.98    9.41   -0.22
#  48   -9.44   -1.63    2.72    4.03   -0.15    0.00    0.00      -4.47    7.55   -0.28
#  49   -8.76   -1.48    2.49    3.89   -0.09    0.00    0.00      -3.95    9.41   -0.22
#  50  -24.48   -0.18    0.06    5.80    0.18    0.00    0.00     -18.63   17.45    0.53
#  51   -2.76   -0.14    0.01    0.66   -0.04    0.00    0.00      -2.26    5.04   -0.27
#  52   -1.59   -0.06    0.00    0.30   -0.02    0.00    0.00      -1.36    5.03   -0.27
#  53   -1.81   -0.26    0.07    0.48   -0.06    0.00    0.00      -1.57    2.39   -0.28
#  54   -3.10   -0.37    0.20    0.58   -0.07    0.00    0.00      -2.76    2.39   -0.28
#  55   -0.91   -0.14    0.01    0.29   -0.03    0.00    0.00      -0.78    2.68   -0.28
#  56   -0.31   -0.22    0.06    0.42   -0.04    0.00    0.00      -0.09    2.67   -0.28
#  57   -0.76   -0.19    0.02    0.54   -0.05    0.00    0.00      -0.44    3.29   -0.28
#  58   -1.13   -0.20    0.01    0.30   -0.06    0.00    0.00      -1.07    1.51   -0.28
#  59   -1.92   -0.36    0.07    0.33   -0.10    0.00    0.00      -1.98    0.95   -0.28
#  60   -1.87   -0.43    0.11    0.64   -0.12    0.00    0.00      -1.66    1.50   -0.28
#  61   -2.20   -0.19    0.01    0.57   -0.05    0.00    0.00      -1.86    3.29   -0.28

@<TRIPOS>MOLECULE
          T525587        65
   61    63     0     0     0



@<TRIPOS>ATOM
      1 N1         11.9199    -5.6056    86.4154 N.pl3      1          -0.7199
      2 H1         12.7958    -5.9279    86.1512 H          1           0.4478
      3 H2         11.4232    -5.0144    85.8282 H          1           0.4456
      4 C1         11.4087    -5.9706    87.5549 C.cat      1           0.5834
      5 N2         12.1128    -6.8126    88.3877 N.pl3      1          -0.6335
      6 C2         13.4371    -7.2969    87.9902 C.3        1           0.0643
      7 C3         14.5071    -6.3246    88.4905 C.3        1          -0.1281
      8 C4         15.8901    -6.8306    88.0755 C.3        1          -0.0743
      9 C5         15.9604    -6.9251    86.5730 C.ar       1          -0.1013
     10 C6         15.5904    -8.0948    85.9361 C.ar       1          -0.1159
     11 C7         15.6549    -8.1816    84.5580 C.ar       1          -0.1149
     12 C8         16.0889    -7.0984    83.8169 C.ar       1          -0.1120
     13 C9         16.4580    -5.9284    84.4537 C.ar       1          -0.1148
     14 C10        16.3895    -5.8402    85.8316 C.ar       1          -0.1158
     15 C11        10.0681    -5.4803    87.9573 C.ar       1           0.1047
     16 C12         9.6262    -4.2349    87.5112 C.ar       1          -0.0668
     17 C13         8.3722    -3.7853    87.8917 C.ar       1          -0.0380
     18 C14         7.5973    -4.5943    88.7071 C.ar       1          -0.0668
     19 C15         8.0999    -5.8291    89.1176 C.ar       1           0.1047
     20 N3          9.3009    -6.2320    88.7320 N.ar       1          -0.4187
     21 C16         7.2784    -6.7019    89.9908 C.cat      1           0.5834
     22 N4          7.4046    -7.9952    89.9219 N.pl3      1          -0.7199
     23 H3          8.0360    -8.3884    89.2994 H          1           0.4456
     24 H4          6.8671    -8.5660    90.4931 H          1           0.4478
     25 N5          6.3814    -6.1435    90.8750 N.pl3      1          -0.6335
     26 C17         5.5698    -7.0058    91.7377 C.3        1           0.0643
     27 C18         6.3140    -7.2596    93.0501 C.3        1          -0.1281
     28 C19         5.4664    -8.1601    93.9511 C.3        1          -0.0743
     29 C20         6.1994    -8.4102    95.2439 C.ar       1          -0.1013
     30 C21         7.0571    -9.4887    95.3546 C.ar       1          -0.1159
     31 C22         7.7294    -9.7180    96.5405 C.ar       1          -0.1149
     32 C23         7.5445    -8.8686    97.6153 C.ar       1          -0.1120
     33 C24         6.6877    -7.7897    97.5042 C.ar       1          -0.1148
     34 C25         6.0185    -7.5578    96.3169 C.ar       1          -0.1158
     35 H5         11.7317    -7.0847    89.2372 H          1           0.4436
     36 H6         13.6091    -8.2817    88.4246 H          1           0.1070
     37 H7         13.4879    -7.3653    86.9035 H          1           0.1069
     38 H8         14.3349    -5.3399    88.0561 H          1           0.0851
     39 H9         14.4563    -6.2564    89.5772 H          1           0.0851
     40 H10        16.6524    -6.1379    88.4320 H          1           0.0818
     41 H11        16.0621    -7.8153    88.5099 H          1           0.0818
     42 H12        15.2513    -8.9410    86.5152 H          1           0.1206
     43 H13        15.3665    -9.0957    84.0603 H          1           0.1264
     44 H14        16.1399    -7.1665    82.7402 H          1           0.1272
     45 H15        16.7975    -5.0824    83.8747 H          1           0.1264
     46 H16        16.6744    -4.9248    86.3290 H          1           0.1206
     47 H17        10.2546    -3.6278    86.8765 H          1           0.1729
     48 H18         8.0066    -2.8246    87.5603 H          1           0.1888
     49 H19         6.6156    -4.2724    89.0216 H          1           0.1728
     50 H20         6.2873    -5.1796    90.9265 H          1           0.4436
     51 H21         4.6185    -6.5171    91.9480 H          1           0.1070
     52 H22         5.3872    -7.9551    91.2341 H          1           0.1070
     53 H23         7.2654    -7.7483    92.8397 H          1           0.0851
     54 H24         6.4966    -6.3104    93.5538 H          1           0.0851
     55 H25         4.5150    -7.6715    94.1614 H          1           0.0818
     56 H26         5.2839    -9.1094    93.4474 H          1           0.0818
     57 H27         7.2015   -10.1523    94.5149 H          1           0.1206
     58 H28         8.3989   -10.5610    96.6274 H          1           0.1264
     59 H29         8.0692    -9.0483    98.5420 H          1           0.1272
     60 H30         6.5429    -7.1262    98.3440 H          1           0.1264
     61 H31         5.3519    -6.7127    96.2289 H          1           0.1206
@<TRIPOS>BOND
     1    1    2 1
     2    1    3 1
     3    1    4 2
     4    4    5 1
     5    4   15 1
     6    5    6 1
     7    5   35 1
     8    6    7 1
     9    6   36 1
    10    6   37 1
    11    7    8 1
    12    7   38 1
    13    7   39 1
    14    8    9 1
    15    8   40 1
    16    8   41 1
    17    9   14 ar
    18    9   10 ar
    19   10   11 ar
    20   10   42 1
    21   11   12 ar
    22   11   43 1
    23   12   13 ar
    24   12   44 1
    25   13   14 ar
    26   13   45 1
    27   14   46 1
    28   15   20 ar
    29   15   16 ar
    30   16   17 ar
    31   16   47 1
    32   17   18 ar
    33   17   48 1
    34   18   19 ar
    35   18   49 1
    36   19   20 ar
    37   19   21 1
    38   21   22 2
    39   21   25 1
    40   22   23 1
    41   22   24 1
    42   25   26 1
    43   25   50 1
    44   26   27 1
    45   26   51 1
    46   26   52 1
    47   27   28 1
    48   27   53 1
    49   27   54 1
    50   28   29 1
    51   28   55 1
    52   28   56 1
    53   29   34 ar
    54   29   30 ar
    55   30   31 ar
    56   30   57 1
    57   31   32 ar
    58   31   58 1
    59   32   33 ar
    60   32   59 1
    61   33   34 ar
    62   33   60 1
    63   34   61 1
##########                 Name:              T526948
##########          Protonation:                   11
##########               SMILES:   [H]/N=C/1\[NH+]=C(NC(N1OCc2ccc(cc2Cl)C)(C)C)N
##########            Long Name:   4-methyl-phenyl)methoxy]-4-imino-6,6-dimethyl-1H-1,3,5-triazin-3-ium-2-amine
##########          FlexRecCode: 1
##########               Number:                   77
##########   Ligand Source File: /raidb/db2/rgc/tcams/tcams-0000217.db2.gz
##########           GlobalRank: 450
##########                 Rank:                    1
##########               Setnum:                   32
##########             Matchnum:                 4652
##########                Cloud:                    1
##########        Electrostatic:           -49.363270
##########        Van der Waals:           -23.578205
##########  Ligand Polar Desolv:            12.291162
########## Ligand Apolar Desolv:            -3.160596
##########      Internal Energy:             0.000000
##########      Receptor Energy: 0.0
########## Receptor Desolvation:             0.000000
########## Receptor Hydrophobic:             0.000000
##########         Total Energy: -63.81
##########        Ligand Charge:             1.000000
##########            Arbitrary:    +999.9990
##########     heavy atom count:   20
##########           pose count:    1
##########        Ligand Energy:             0.000000
# num electro vdwattr vdwrepu polsolv apolsol rdesolv rhydroe totalscore fullpol fullapo
#   1    0.56   -2.04    0.69   -0.59   -0.12    0.00    0.00      -1.50   -0.96   -0.20
#   2    0.53   -1.65    0.25   -0.36   -0.22    0.00    0.00      -1.45   -0.67   -0.41
#   3    1.42   -2.31    1.04   -0.56   -0.24    0.00    0.00      -0.65   -1.06   -0.45
#   4    1.27   -1.96    0.50   -0.42   -0.23    0.00    0.00      -0.84   -0.79   -0.44
#   5    1.03   -1.40    0.16   -0.30   -0.16    0.00    0.00      -0.68   -0.76   -0.41
#   6   -0.96   -0.80    0.06    0.42   -0.04    0.00    0.00      -1.32    1.08   -0.11
#   7    0.68   -1.01    0.12   -0.50    0.12    0.00    0.00      -0.59   -1.45    0.36
#   8    7.75   -0.83    0.05   -2.52    0.25    0.00    0.00       4.71   -8.69    0.87
#   9  -15.26   -0.92    0.11    3.11   -1.26    0.00    0.00     -14.21   11.41   -4.61
#  10   15.00   -1.06    0.17   -3.11    0.39    0.00    0.00      11.38  -11.52    1.43
#  11   25.75   -2.66    3.70   -5.11    0.35    0.00    0.00      22.03  -15.10    1.02
#  12  -27.85   -0.24    0.20    3.95    0.17    0.00    0.00     -23.77   13.27    0.57
#  13  -28.05   -1.78    0.51    8.65   -1.96    0.00    0.00     -22.63   20.72   -4.69
#  14   35.34   -4.04    2.22  -11.69    0.48    0.00    0.00      22.31  -22.81    0.94
#  15   18.97   -1.30    0.11   -7.15    0.60    0.00    0.00      11.22  -17.92    1.51
#  16   -7.16   -0.59    0.03    2.94   -0.12    0.00    0.00      -4.91    8.97   -0.38
#  17    2.23   -0.54    0.06   -0.94   -0.04    0.00    0.00       0.77   -3.86   -0.18
#  18    2.58   -1.24    0.25   -1.62   -0.08    0.00    0.00      -0.11   -3.46   -0.16
#  19    0.17   -1.22    0.12   -0.13   -0.10    0.00    0.00      -1.17   -0.37   -0.29
#  20    0.30   -2.33    0.57   -0.15   -0.28    0.00    0.00      -1.88   -0.51   -0.95
#  21    0.82   -1.22    0.09   -0.41   -0.21    0.00    0.00      -0.93   -0.89   -0.45
#  22   -0.19   -0.87    0.69    0.38   -0.17    0.00    0.00      -0.15    0.62   -0.28
#  23   -0.45   -0.86    0.70    0.48   -0.17    0.00    0.00      -0.30    0.80   -0.28
#  24   -0.35   -0.88    0.57    0.27   -0.14    0.00    0.00      -0.52    0.56   -0.28
#  25   -2.11   -0.67    0.38    0.84   -0.14    0.00    0.00      -1.70    1.64   -0.28
#  26   -2.62   -0.42    0.06    0.93   -0.12    0.00    0.00      -2.17    1.83   -0.24
#  27   -1.49   -0.30    0.05    0.17   -0.08    0.00    0.00      -1.65    0.56   -0.27
#  28   -1.47   -0.31    0.06    0.31   -0.07    0.00    0.00      -1.48    1.25   -0.26
#  29  -10.14   -0.02    0.00    1.37    0.13    0.00    0.00      -8.66    6.04    0.58
#  30  -27.39   -0.16    0.02    8.14    0.32    0.00    0.00     -19.07   15.04    0.59
#  31  -16.75   -0.07    0.00    7.92    0.31    0.00    0.00      -8.59   15.24    0.60
#  32  -12.75   -0.04    0.00    4.72    0.19    0.00    0.00      -7.87   14.05    0.58
#  33   -1.83   -0.14    0.00    0.13   -0.03    0.00    0.00      -1.87    1.06   -0.27
#  34   -1.44   -0.09    0.00    0.26   -0.02    0.00    0.00      -1.30    3.11   -0.28
#  35    0.09   -0.44    0.44    0.31   -0.06    0.00    0.00       0.34    1.53   -0.27
#  36   -1.86   -0.41    0.11    0.64   -0.12    0.00    0.00      -1.63    1.55   -0.28
#  37   -0.68   -0.64    0.37    1.27   -0.11    0.00    0.00       0.22    3.24   -0.28
#  38   -1.85   -0.47    0.10    0.43   -0.11    0.00    0.00      -1.90    1.04   -0.27
#  39   -1.21   -0.22    0.01    0.21   -0.07    0.00    0.00      -1.28    0.83   -0.28

@<TRIPOS>MOLECULE
          T526948        11
   39    40     0     0     0



@<TRIPOS>ATOM
      1 C1          9.6178   -12.6083    98.3925 C.3        1          -0.1222
      2 C2          8.8952   -11.3610    97.9526 C.ar       1          -0.0609
      3 C3          8.8430   -10.2612    98.7888 C.ar       1          -0.1119
      4 C4          8.1808    -9.1169    98.3860 C.ar       1          -0.0866
      5 C5          7.5699    -9.0714    97.1468 C.ar       1          -0.0911
      6 C6          6.8481    -7.8236    96.7076 C.3        1           0.0670
      7 O1          5.5912    -8.1794    96.1282 O.3        1          -0.0747
      8 N1          5.0366    -7.1775    95.2955 N.pl3      1          -0.4885
      9 C7          5.7066    -6.7206    94.1703 C.2        1           0.5979
     10 N2          6.5955    -7.4799    93.5792 N.2        1          -0.6795
     11 N3          5.4376    -5.4915    93.6887 N.pl3      1          -0.6182
     12 H1          5.9148    -5.1756    92.9055 H          1           0.4508
     13 C8          4.5432    -4.7080    94.2549 C.cat      1           0.7448
     14 N4          4.2908    -3.4727    93.7271 N.pl3      1          -0.7846
     15 N5          3.8634    -5.1245    95.3708 N.pl3      1          -0.6900
     16 C9          3.7189    -6.5802    95.5848 C.3        1           0.4072
     17 C10         2.6648    -7.1517    94.6345 C.3        1          -0.1823
     18 C11         3.3245    -6.8599    97.0363 C.3        1          -0.1666
     19 C12         7.6219   -10.1715    96.3096 C.ar       1          -0.0218
     20 Cl1         6.8555   -10.1150    94.7530 Cl         1          -0.0613
     21 C13         8.2899   -11.3149    96.7112 C.ar       1          -0.1057
     22 H2         10.0274   -12.4577    99.3913 H          1           0.0794
     23 H3          8.9204   -13.4458    98.4083 H          1           0.0742
     24 H4         10.4282   -12.8234    97.6960 H          1           0.0736
     25 H5          9.3195   -10.2966    99.7574 H          1           0.1342
     26 H6          8.1404    -8.2580    99.0397 H          1           0.1359
     27 H7          6.6809    -7.1780    97.5697 H          1           0.0961
     28 H8          7.4518    -7.2953    95.9697 H          1           0.0783
     29 H9          7.0625    -7.1575    92.7925 H          1           0.3667
     30 H10         4.7698    -3.1755    92.9378 H          1           0.4419
     31 H11         3.6325    -2.8934    94.1419 H          1           0.4451
     32 H12         3.4883    -4.4853    95.9964 H          1           0.4498
     33 H13         1.6955    -6.7049    94.8559 H          1           0.1013
     34 H14         2.9427    -6.9255    93.6052 H          1           0.1018
     35 H15         2.6052    -8.2323    94.7656 H          1           0.0674
     36 H16         2.3505    -6.4151    97.2404 H          1           0.0905
     37 H17         3.2731    -7.9366    97.1979 H          1           0.0986
     38 H18         4.0687    -6.4273    97.7049 H          1           0.1030
     39 H19         8.3342   -12.1726    96.0565 H          1           0.1404
@<TRIPOS>BOND
     1    1    2 1
     2    1   22 1
     3    1   23 1
     4    1   24 1
     5    2   21 ar
     6    2    3 ar
     7    3    4 ar
     8    3   25 1
     9    4    5 ar
    10    4   26 1
    11    5    6 1
    12    5   19 ar
    13    6    7 1
    14    6   27 1
    15    6   28 1
    16    7    8 1
    17    8   16 1
    18    8    9 1
    19    9   10 2
    20    9   11 1
    21   10   29 1
    22   11   12 1
    23   11   13 2
    24   13   14 1
    25   13   15 1
    26   14   30 1
    27   14   31 1
    28   15   16 1
    29   15   32 1
    30   16   17 1
    31   16   18 1
    32   17   33 1
    33   17   34 1
    34   17   35 1
    35   18   36 1
    36   18   37 1
    37   18   38 1
    38   19   20 1
    39   19   21 ar
    40   21   39 1
##########                 Name:              T537201
##########          Protonation:                   15
##########               SMILES:   CC1(NC(=[NH+]/C(=N/OCCCCCCO/N=C/2\NC(=[NH2+])NC(N2)(C)C)/N1)N)C
##########            Long Name:   lidene)amino]oxyhexoxyimino]-4,4-dimethyl-1,3,5-triazinan-2-ylidene]ammonium
##########          FlexRecCode: 1
##########               Number:                   25
##########   Ligand Source File: /raidb/db2/rgc/tcams/tcams-0001600.db2.gz
##########           GlobalRank: 451
##########                 Rank:                    1
##########               Setnum:                    5
##########             Matchnum:                 1630
##########                Cloud:                    1
##########        Electrostatic:           -62.168312
##########        Van der Waals:           -22.520874
##########  Ligand Polar Desolv:            22.199936
########## Ligand Apolar Desolv:            -1.306653
##########      Internal Energy:             0.000000
##########      Receptor Energy: 0.0
########## Receptor Desolvation:             0.000000
########## Receptor Hydrophobic:             0.000000
##########         Total Energy: -63.8
##########        Ligand Charge:             2.000000
##########            Arbitrary:    +999.9990
##########     heavy atom count:   28
##########           pose count:    1
##########        Ligand Energy:             0.000000
# num electro vdwattr vdwrepu polsolv apolsol rdesolv rhydroe totalscore fullpol fullapo
#   1    1.94   -0.25    0.01   -0.63   -0.03    0.00    0.00       1.04   -4.38   -0.18
#   2   -7.18   -0.51    0.03    3.12   -0.11    0.00    0.00      -4.64   11.15   -0.38
#   3    4.53   -0.83    0.10   -1.65   -0.07    0.00    0.00       2.07   -4.32   -0.19
#   4   20.93   -1.63    0.39   -6.75    0.48    0.00    0.00      13.42  -21.32    1.52
#   5  -17.90   -1.73    0.64    6.90   -1.35    0.00    0.00     -13.43   23.27   -4.54
#   6   22.99   -1.84    0.74   -6.65    0.26    0.00    0.00      15.50  -22.87    0.90
#   7  -17.67   -0.04    0.00    4.01    0.15    0.00    0.00     -13.55   16.60    0.60
#   8  -10.83   -0.02    0.00    3.15    0.12    0.00    0.00      -7.58   15.89    0.60
#   9    2.70   -1.80    0.87   -5.27    0.30    0.00    0.00      -3.21  -18.18    1.03
#  10   -2.09   -0.89    0.11    3.18   -1.07    0.00    0.00      -0.76   13.24   -4.47
#  11    3.88   -1.15    0.19   -4.88    0.43    0.00    0.00      -1.53  -17.29    1.53
#  12    0.93   -0.60    0.03   -1.73    0.25    0.00    0.00      -1.12   -8.13    1.17
#  13    0.45   -0.44    0.03   -0.76    0.08    0.00    0.00      -0.65   -4.20    0.46
#  14   -0.11   -0.14    0.00    0.12   -0.01    0.00    0.00      -0.14    1.34   -0.12
#  15    0.17   -0.08    0.00   -0.09   -0.01    0.00    0.00      -0.02   -1.78   -0.24
#  16    0.30   -0.13    0.00   -0.17   -0.02    0.00    0.00      -0.01   -2.00   -0.22
#  17    0.52   -0.13    0.00   -0.16   -0.02    0.00    0.00       0.21   -1.89   -0.22
#  18    0.88   -0.21    0.00   -0.23   -0.03    0.00    0.00       0.41   -1.77   -0.24
#  19   -0.46   -0.40    0.05    0.23   -0.02    0.00    0.00      -0.60    1.38   -0.12
#  20    2.38   -0.44    0.03   -0.72    0.08    0.00    0.00       1.32   -4.08    0.45
#  21   10.11   -0.83    0.13   -2.00    0.27    0.00    0.00       7.68   -8.81    1.19
#  22  -15.98   -1.09    0.24    3.75   -1.29    0.00    0.00     -14.37   13.43   -4.62
#  23   12.45   -0.85    0.05   -5.12    0.42    0.00    0.00       6.95  -17.64    1.46
#  24   -6.44   -0.72    0.05    4.08   -0.14    0.00    0.00      -3.17   10.77   -0.38
#  25    2.63   -1.00    0.13   -1.81   -0.07    0.00    0.00      -0.13   -4.36   -0.18
#  26    2.08   -0.84    0.07   -1.70   -0.07    0.00    0.00      -0.46   -4.36   -0.18
#  27   16.28   -2.10    0.55   -9.61    0.69    0.00    0.00       5.80  -20.98    1.50
#  28  -25.98   -2.49    0.68   12.15   -2.39    0.00    0.00     -18.04   23.79   -4.69
#  29   27.73   -4.93    2.47  -15.43    0.57    0.00    0.00      10.40  -24.69    0.91
#  30   25.59   -3.19    4.92   -7.33    0.46    0.00    0.00      20.45  -16.57    1.05
#  31  -28.76   -0.22    0.15    5.16    0.21    0.00    0.00     -23.45   14.21    0.58
#  32   -1.21   -0.05    0.00    0.07   -0.01    0.00    0.00      -1.20    1.42   -0.28
#  33   -0.80   -0.04    0.00    0.13   -0.01    0.00    0.00      -0.73    2.86   -0.28
#  34   -0.40   -0.12    0.02    0.11   -0.03    0.00    0.00      -0.41    1.03   -0.26
#  35   -3.48   -0.35    0.05    0.75   -0.11    0.00    0.00      -3.14    1.98   -0.28
#  36   -2.17   -0.19    0.01    0.48   -0.06    0.00    0.00      -1.93    2.11   -0.28
#  37   -2.49   -0.37    0.11    0.91   -0.08    0.00    0.00      -1.93    3.10   -0.28
#  38  -17.22   -0.05    0.00    5.12    0.20    0.00    0.00     -11.95   15.12    0.58
#  39   -1.57   -0.05    0.00    3.77    0.17    0.00    0.00       2.33   12.94    0.59
#  40   -2.23   -0.04    0.00    2.39    0.14    0.00    0.00       0.26   10.02    0.58
#  41   -0.09   -0.04    0.00    0.02   -0.01    0.00    0.00      -0.11    0.58   -0.28
#  42   -0.10   -0.03    0.00    0.02   -0.01    0.00    0.00      -0.12    0.65   -0.28
#  43   -0.07   -0.01    0.00    0.04   -0.01    0.00    0.00      -0.06    1.54   -0.28
#  44   -0.21   -0.02    0.00    0.04   -0.01    0.00    0.00      -0.20    1.41   -0.28
#  45   -0.23   -0.07    0.00    0.08   -0.02    0.00    0.00      -0.23    1.07   -0.28
#  46   -0.10   -0.03    0.00    0.04   -0.01    0.00    0.00      -0.10    1.14   -0.28
#  47   -0.07   -0.04    0.00    0.06   -0.01    0.00    0.00      -0.06    1.36   -0.28
#  48   -0.53   -0.04    0.00    0.05   -0.01    0.00    0.00      -0.53    1.28   -0.28
#  49   -1.00   -0.09    0.00    0.10   -0.03    0.00    0.00      -1.01    1.07   -0.28
#  50   -0.30   -0.05    0.00    0.05   -0.01    0.00    0.00      -0.31    1.09   -0.28
#  51   -0.59   -0.11    0.01    0.07   -0.03    0.00    0.00      -0.64    0.74   -0.28
#  52    0.06   -0.28    0.11    0.12   -0.05    0.00    0.00      -0.04    0.73   -0.28
#  53   -4.57   -0.01    0.00    1.34    0.08    0.00    0.00      -3.16    9.33    0.55
#  54   -1.59   -0.47    0.13    0.78   -0.12    0.00    0.00      -1.26    1.89   -0.28
#  55   -2.04   -0.28    0.03    0.85   -0.07    0.00    0.00      -1.51    3.21   -0.28
#  56   -0.73   -0.35    0.06    0.68   -0.09    0.00    0.00      -0.43    2.09   -0.28
#  57   -0.86   -0.28    0.02    0.41   -0.08    0.00    0.00      -0.80    1.28   -0.26
#  58   -0.53   -0.32    0.04    0.78   -0.08    0.00    0.00      -0.10    2.86   -0.28
#  59   -1.28   -0.31    0.06    0.28   -0.06    0.00    0.00      -1.30    1.35   -0.28
#  60   -9.79   -0.05    0.00    6.96    0.26    0.00    0.00      -2.62   15.58    0.58
#  61  -13.27   -0.08    0.00   11.77    0.41    0.00    0.00      -1.17   17.10    0.60
#  62  -18.76   -0.11    0.01   10.76    0.38    0.00    0.00      -7.72   16.73    0.59

@<TRIPOS>MOLECULE
          T537201        15
   62    63     0     0     0



@<TRIPOS>ATOM
      1 C1          7.9533    -7.4548    87.4279 C.3        1          -0.1795
      2 C2          7.7551    -5.9591    87.1742 C.3        1           0.4094
      3 C3          9.0792    -5.3242    86.7450 C.3        1          -0.1715
      4 N1          7.2565    -5.3044    88.3984 N.pl3      1          -0.7287
      5 C4          5.9261    -5.5043    88.7241 C.cat      1           0.7716
      6 N2          5.5439    -5.7868    89.9724 N.pl3      1          -0.7364
      7 H1          6.2057    -5.8565    90.6782 H          1           0.4481
      8 H2          4.6047    -5.9222    90.1731 H          1           0.4454
      9 N3          5.0270    -5.3979    87.7075 N.pl3      1          -0.6703
     10 C5          5.4050    -5.9420    86.4953 C.2        1           0.5579
     11 N4          6.7383    -5.7588    86.1236 N.pl3      1          -0.7255
     12 N5          4.5634    -6.5908    85.7402 N.2        1          -0.3388
     13 O1          3.2197    -6.7537    86.1556 O.3        1          -0.2251
     14 C6          2.8167    -8.1173    86.2986 C.3        1           0.0720
     15 C7          3.3192    -8.6598    87.6381 C.3        1          -0.1154
     16 C8          2.7263    -7.8306    88.7790 C.3        1          -0.1155
     17 C9          3.2287    -8.3730    90.1183 C.3        1          -0.1139
     18 C10         2.6358    -7.5438    91.2593 C.3        1          -0.1164
     19 C11         3.1383    -8.0863    92.5986 C.3        1           0.0735
     20 O2          4.5643    -8.0039    92.6411 O.3        1          -0.2095
     21 N6          5.0576    -6.7145    92.9557 N.2        1          -0.3877
     22 C12         5.7984    -6.5404    94.0141 C.2        1           0.5595
     23 N7          6.1135    -7.6144    94.8354 N.pl3      1          -0.7470
     24 C13         6.4161    -7.3359    96.2493 C.3        1           0.3914
     25 C14         5.1375    -6.9645    97.0030 C.3        1          -0.1721
     26 C15         7.0810    -8.5508    96.8995 C.3        1          -0.1765
     27 N8          7.3453    -6.1948    96.2262 N.pl3      1          -0.6984
     28 C16         7.0395    -5.1183    95.4257 C.cat      1           0.7562
     29 N9          7.4977    -3.9020    95.7336 N.pl3      1          -0.7637
     30 N10         6.2798    -5.2973    94.3259 N.pl3      1          -0.5904
     31 H3          6.0704    -4.5413    93.7553 H          1           0.4571
     32 H4          8.7053    -7.5950    88.2045 H          1           0.1003
     33 H5          7.0107    -7.8967    87.7510 H          1           0.0916
     34 H6          8.2853    -7.9385    86.5093 H          1           0.0598
     35 H7          8.9302    -4.2593    86.5660 H          1           0.1026
     36 H8          9.8197    -5.4601    87.5331 H          1           0.0857
     37 H9          9.4308    -5.8006    85.8299 H          1           0.0972
     38 H10         7.8361    -4.7575    88.9515 H          1           0.4470
     39 H11         4.1678    -4.9641    87.8277 H          1           0.4546
     40 H12         6.9844    -5.5114    85.2187 H          1           0.4398
     41 H13         1.7292    -8.1801    86.2662 H          1           0.0668
     42 H14         3.2393    -8.7081    85.4858 H          1           0.0656
     43 H15         3.0119    -9.7000    87.7471 H          1           0.0737
     44 H16         4.4069    -8.5971    87.6704 H          1           0.0750
     45 H17         3.0336    -6.7905    88.6699 H          1           0.0713
     46 H18         1.6385    -7.8933    88.7465 H          1           0.0707
     47 H19         2.9214    -9.4132    90.2273 H          1           0.0694
     48 H20         4.3164    -8.3103    90.1508 H          1           0.0700
     49 H21         2.9431    -6.5037    91.1501 H          1           0.0756
     50 H22         1.5480    -7.6066    91.2268 H          1           0.0755
     51 H23         2.7159    -7.4954    93.4114 H          1           0.0628
     52 H24         2.8310    -9.1263    92.7076 H          1           0.0632
     53 H25         6.1334    -8.5201    94.4888 H          1           0.4411
     54 H26         5.3771    -6.7614    98.0468 H          1           0.1029
     55 H27         4.6952    -6.0760    96.5523 H          1           0.0979
     56 H28         4.4295    -7.7911    96.9469 H          1           0.0844
     57 H29         7.2988    -8.3300    97.9446 H          1           0.0622
     58 H30         6.4092    -9.4072    96.8416 H          1           0.0925
     59 H31         8.0089    -8.7808    96.3758 H          1           0.0993
     60 H32         8.1536    -6.2014    96.7624 H          1           0.4465
     61 H33         8.0472    -3.7763    96.5230 H          1           0.4502
     62 H34         7.2809    -3.1445    95.1679 H          1           0.4450
@<TRIPOS>BOND
     1    1    2 1
     2    1   32 1
     3    1   33 1
     4    1   34 1
     5    2   11 1
     6    2    3 1
     7    2    4 1
     8    3   35 1
     9    3   36 1
    10    3   37 1
    11    4    5 1
    12    4   38 1
    13    5    6 2
    14    5    9 1
    15    6    7 1
    16    6    8 1
    17    9   10 1
    18    9   39 1
    19   10   11 1
    20   10   12 2
    21   11   40 1
    22   12   13 1
    23   13   14 1
    24   14   15 1
    25   14   41 1
    26   14   42 1
    27   15   16 1
    28   15   43 1
    29   15   44 1
    30   16   17 1
    31   16   45 1
    32   16   46 1
    33   17   18 1
    34   17   47 1
    35   17   48 1
    36   18   19 1
    37   18   49 1
    38   18   50 1
    39   19   20 1
    40   19   51 1
    41   19   52 1
    42   20   21 1
    43   21   22 2
    44   22   30 1
    45   22   23 1
    46   23   24 1
    47   23   53 1
    48   24   25 1
    49   24   26 1
    50   24   27 1
    51   25   54 1
    52   25   55 1
    53   25   56 1
    54   26   57 1
    55   26   58 1
    56   26   59 1
    57   27   28 1
    58   27   60 1
    59   28   29 1
    60   28   30 2
    61   29   61 1
    62   29   62 1
    63   30   31 1
##########                 Name:              T529316
##########          Protonation:                   14
##########               SMILES:   c1ccc(cc1)Oc2ccc(cc2)Nc3cc[nH+]/c(=N/c4cccc(c4)C(=O)NCC[NH+]5CCCCC5)/[nH]3
##########            Long Name:   1H-pyrimidin-3-ium-2-ylidene]amino]-N-(2-piperidin-1-ium-1-ylethyl)benzamide
##########          FlexRecCode: 1
##########               Number:                  156
##########   Ligand Source File: /raidb/db2/rgc/tcams/tcams-0000515.db2.gz
##########           GlobalRank: 453
##########                 Rank:                    1
##########               Setnum:                  160
##########             Matchnum:                  202
##########                Cloud:                    1
##########        Electrostatic:           -38.702194
##########        Van der Waals:           -28.921825
##########  Ligand Polar Desolv:             8.061234
########## Ligand Apolar Desolv:            -4.230398
##########      Internal Energy:             0.000000
##########      Receptor Energy: 0.0
########## Receptor Desolvation:             0.000000
########## Receptor Hydrophobic:             0.000000
##########         Total Energy: -63.79
##########        Ligand Charge:             2.000000
##########            Arbitrary:    +999.9990
##########     heavy atom count:   38
##########           pose count:    1
##########        Ligand Energy:             0.000000
# num electro vdwattr vdwrepu polsolv apolsol rdesolv rhydroe totalscore fullpol fullapo
#   1    4.67   -0.86    0.16   -2.79    0.09    0.00    0.00       1.28  -11.86    0.38
#   2  -10.49   -0.65    0.04    2.93   -0.14    0.00    0.00      -8.31   13.20   -0.65
#   3   25.22   -1.68    1.08   -5.82    0.65    0.00    0.00      19.45  -20.61    2.31
#   4   -3.19   -1.03    0.25    1.05   -0.17    0.00    0.00      -3.09    2.53   -0.41
#   5    0.81   -1.24    0.20    0.08   -0.17    0.00    0.00      -0.32    0.17   -0.36
#   6    9.93   -0.87    0.05   -4.82    0.10    0.00    0.00       4.39  -13.38    0.27
#   7   -9.75   -0.01    0.00    1.71    0.05    0.00    0.00      -7.99   17.24    0.54
#   8    0.41   -1.19    0.24    0.09   -0.15    0.00    0.00      -0.61    0.21   -0.37
#   9    3.57   -0.74    0.06   -1.57   -0.09    0.00    0.00       1.23   -4.24   -0.25
#  10    4.27   -1.38    0.71   -1.86   -0.12    0.00    0.00       1.61   -4.00   -0.25
#  11    2.78   -0.93    0.10   -2.09   -0.12    0.00    0.00      -0.26   -4.49   -0.25
#  12    0.13   -0.91    0.09    0.30   -0.16    0.00    0.00      -0.56    0.68   -0.38
#  13    1.58   -0.46    0.02   -0.52   -0.07    0.00    0.00       0.55   -3.00   -0.41
#  14    1.85   -0.45    0.02   -0.48   -0.06    0.00    0.00       0.89   -2.87   -0.35
#  15   -0.79   -0.22    0.00    0.17   -0.05    0.00    0.00      -0.89    1.92   -0.57
#  16    0.29   -0.16    0.00   -0.19   -0.03    0.00    0.00      -0.09   -2.73   -0.47
#  17    0.15   -0.33    0.04   -0.29   -0.05    0.00    0.00      -0.48   -2.65   -0.47
#  18    0.36   -0.60    0.11   -0.31   -0.07    0.00    0.00      -0.52   -2.07   -0.45
#  19    5.27   -0.20    0.00   -1.16    0.17    0.00    0.00       4.08  -14.18    2.04
#  20   -4.20   -0.16    0.00    1.03   -0.29    0.00    0.00      -3.61   16.60   -4.64
#  21    3.44   -0.15    0.00   -1.20    0.05    0.00    0.00       2.14  -18.39    0.80
#  22   -1.93   -0.15    0.00    0.97   -0.10    0.00    0.00      -1.20   16.12   -1.59
#  23    2.18   -0.25    0.01   -2.16    0.11    0.00    0.00      -0.11  -20.05    1.03
#  24   -0.85   -0.48    0.03    0.98   -0.13    0.00    0.00      -0.46    5.23   -0.70
#  25    1.24   -0.89    0.15   -0.91   -0.10    0.00    0.00      -0.52   -3.79   -0.42
#  26    0.44   -2.02    0.73   -0.47   -0.15    0.00    0.00      -1.46   -1.45   -0.45
#  27   -0.46   -1.57    0.36    0.11   -0.07    0.00    0.00      -1.62    0.32   -0.21
#  28    0.22   -2.74    1.47   -1.88    0.19    0.00    0.00      -2.75   -4.63    0.47
#  29   -0.36   -1.81    0.34    0.74   -0.13    0.00    0.00      -1.21    1.81   -0.31
#  30    1.02   -1.46    0.17   -1.32   -0.23    0.00    0.00      -1.82   -2.61   -0.46
#  31    0.78   -1.74    0.47   -0.80   -0.23    0.00    0.00      -1.51   -1.60   -0.47
#  32    1.75   -1.93    0.64   -1.33   -0.23    0.00    0.00      -1.10   -2.72   -0.47
#  33    0.72   -1.67    0.32   -0.67   -0.19    0.00    0.00      -1.48   -1.65   -0.47
#  34    0.62   -1.94    0.52   -1.20   -0.16    0.00    0.00      -2.16   -3.22   -0.42
#  35    0.68   -1.01    0.22   -0.63   -0.12    0.00    0.00      -0.85   -2.28   -0.42
#  36    0.84   -0.87    0.27   -0.71   -0.10    0.00    0.00      -0.56   -3.36   -0.46
#  37    0.54   -0.12    0.00   -0.46   -0.02    0.00    0.00      -0.06   -9.36   -0.47
#  38   -0.71   -0.14    0.00    0.82   -0.06    0.00    0.00      -0.09   13.77   -0.97
#  39    3.24   -0.19    0.00   -1.33    0.08    0.00    0.00       1.80  -17.02    1.01
#  40   -3.67    0.00    0.00    0.93    0.03    0.00    0.00      -2.70   16.64    0.59
#  41  -20.15   -0.09    0.02    3.73    0.11    0.00    0.00     -16.37   14.25    0.43
#  42   -2.21   -0.19    0.01    0.50   -0.04    0.00    0.00      -1.93    2.65   -0.21
#  43   -3.70   -0.48    0.16    1.10   -0.13    0.00    0.00      -3.05    2.43   -0.28
#  44   -4.40   -0.85    0.72    3.21   -0.12    0.00    0.00      -1.45    7.45   -0.28
#  45   -6.17   -0.54    0.18    3.20   -0.13    0.00    0.00      -3.46    7.08   -0.28
#  46   -3.59   -1.05    1.30    2.22   -0.11    0.00    0.00      -1.24    5.48   -0.28
#  47   -3.89   -0.43    0.12    1.66   -0.07    0.00    0.00      -2.62    4.89   -0.22
#  48   -2.88   -0.27    0.03    0.52   -0.08    0.00    0.00      -2.68    1.90   -0.28
#  49   -1.76   -0.12    0.00    0.27   -0.03    0.00    0.00      -1.63    2.51   -0.28
#  50   -2.81   -0.62    0.27    0.91   -0.14    0.00    0.00      -2.39    1.84   -0.28
#  51   -3.80   -1.02    3.09    0.08   -0.10    0.00    0.00      -1.75    0.22   -0.28
#  52   -1.93   -0.51    0.19    0.81   -0.12    0.00    0.00      -1.57    1.86   -0.28
#  53   -0.98   -0.23    0.03    0.63   -0.07    0.00    0.00      -0.62    2.57   -0.28
#  54   -2.20   -0.22    0.01    1.80   -0.08    0.00    0.00      -0.69    6.54   -0.28
#  55   -3.32   -0.62    0.31    2.27   -0.11    0.00    0.00      -1.47    5.60   -0.28
#  56   -3.48   -0.16    0.02    0.41   -0.04    0.00    0.00      -3.25    2.49   -0.27
#  57   -0.33   -0.02    0.00    0.06   -0.01    0.00    0.00      -0.29    2.41   -0.28
#  58   -0.06   -0.06    0.01    0.26   -0.02    0.00    0.00       0.13    3.80   -0.28
#  59   -0.04   -0.22    0.07    0.90   -0.03    0.00    0.00       0.67    5.86   -0.22
#  60   -2.42    0.00    0.00    0.37    0.01    0.00    0.00      -2.04   11.95    0.41
#  61   -0.92    0.00    0.00    0.61    0.02    0.00    0.00      -0.29   15.18    0.59
#  62   -0.81   -0.15    0.03    0.46   -0.03    0.00    0.00      -0.51    3.65   -0.22
#  63   -0.50   -0.84    0.67    0.74   -0.10    0.00    0.00      -0.03    1.91   -0.27
#  64   -1.04   -0.27    0.01    1.56   -0.12    0.00    0.00       0.14    3.74   -0.28
#  65   -1.42   -0.36    0.07    1.06   -0.11    0.00    0.00      -0.76    2.63   -0.28
#  66   -2.32   -0.38    0.05    0.76   -0.13    0.00    0.00      -2.01    1.67   -0.28
#  67   -1.55   -0.25    0.02    0.52   -0.07    0.00    0.00      -1.34    2.01   -0.28
#  68    0.10   -0.60    0.59    0.65   -0.06    0.00    0.00       0.68    2.37   -0.22
#  69   -1.24   -0.34    0.24    0.44   -0.05    0.00    0.00      -0.95    2.57   -0.28
#  70   -0.90   -0.41    0.55    0.76   -0.04    0.00    0.00      -0.04    4.84   -0.28
#  71   -0.19   -0.02    0.00    0.22   -0.01    0.00    0.00       0.00    9.55   -0.28
#  72   -0.41   -0.03    0.00    0.45   -0.01    0.00    0.00       0.00   14.10   -0.28

@<TRIPOS>MOLECULE
          T529316        14
   72    76     0     0     0



@<TRIPOS>ATOM
      1 O1          4.6664    -7.8891    94.4466 O.2        1          -0.5128
      2 C1          5.1750    -7.3826    93.4658 C.2        1           0.5685
      3 N1          5.8895    -6.2464    93.5881 N.am       1          -0.7261
      4 C2          6.0529    -5.6218    94.9033 C.3        1           0.0954
      5 C3          4.9137    -4.6286    95.1414 C.3        1          -0.0234
      6 N2          3.6279    -5.3375    95.0923 N.4        1          -0.3787
      7 H1          3.6500    -6.0210    94.3505 H          1           0.4256
      8 C4          2.5496    -4.3750    94.8369 C.3        1          -0.0149
      9 C5          1.2185    -5.1180    94.7044 C.3        1          -0.1453
     10 C6          0.9314    -5.8756    96.0038 C.3        1          -0.1405
     11 C7          2.0978    -6.8230    96.2992 C.3        1          -0.1469
     12 C8          3.3955    -6.0154    96.3733 C.3        1          -0.0063
     13 C9          5.0151    -8.0162    92.1393 C.ar       1          -0.1174
     14 C10         5.9835    -7.8296    91.1554 C.ar       1          -0.1055
     15 C11         5.8248    -8.4317    89.9067 C.ar       1           0.0748
     16 C12         4.6959    -9.2172    89.6521 C.ar       1          -0.0690
     17 C13         3.7415    -9.3968    90.6326 C.ar       1          -0.0961
     18 C14         3.8957    -8.8077    91.8722 C.ar       1          -0.0822
     19 N3          6.7691    -8.2541    88.9356 N.2        1          -0.4976
     20 C15         7.7883    -9.0958    88.8405 C.2        1           0.5528
     21 N4          7.8225   -10.2146    89.6386 N.pl3      1          -0.6212
     22 C16         8.8749   -11.0831    89.5392 C.2        1           0.5586
     23 N5          8.9288   -12.2063    90.3253 N.pl3      1          -0.6661
     24 C17         8.3422   -12.2004    91.5963 C.ar       1           0.1414
     25 C18         7.3316   -13.1038    91.8987 C.ar       1          -0.1557
     26 C19         6.7530   -13.0979    93.1524 C.ar       1          -0.0627
     27 C20         7.1809   -12.1896    94.1100 C.ar       1           0.0787
     28 O2          6.6107   -12.1843    95.3442 O.3        1          -0.2610
     29 C21         7.0607   -11.2778    96.2509 C.ar       1           0.1094
     30 C22         8.1149   -11.6017    97.0931 C.ar       1          -0.1437
     31 C23         8.5703   -10.6782    98.0141 C.ar       1          -0.0795
     32 C24         7.9767    -9.4322    98.0970 C.ar       1          -0.1413
     33 C25         6.9258    -9.1071    97.2592 C.ar       1          -0.0778
     34 C26         6.4706   -10.0246    96.3323 C.ar       1          -0.1936
     35 C27         8.1908   -11.2871    93.8088 C.ar       1          -0.0901
     36 C28         8.7736   -11.2951    92.5571 C.ar       1          -0.1245
     37 C29         9.8840   -10.8092    88.6310 C.2        1          -0.2934
     38 C30         9.8001    -9.6641    87.8484 C.2        1           0.3219
     39 N6          8.7686    -8.8501    87.9659 N.pl3      1          -0.5252
     40 H2          8.7226    -8.0567    87.4098 H          1           0.4691
     41 H3          6.2955    -5.8421    92.8054 H          1           0.4085
     42 H4          6.0322    -6.3906    95.6756 H          1           0.0954
     43 H5          7.0069    -5.0960    94.9396 H          1           0.0932
     44 H6          5.0354    -4.1640    96.1198 H          1           0.1396
     45 H7          4.9345    -3.8599    94.3689 H          1           0.1375
     46 H8          2.4901    -3.6686    95.6650 H          1           0.1306
     47 H9          2.7570    -3.8344    93.9134 H          1           0.1318
     48 H10         0.4189    -4.4014    94.5165 H          1           0.1140
     49 H11         1.2769    -5.8245    93.8764 H          1           0.0892
     50 H12         0.8221    -5.1654    96.8234 H          1           0.0826
     51 H13         0.0127    -6.4519    95.8944 H          1           0.0969
     52 H14         1.9267    -7.3251    97.2514 H          1           0.1155
     53 H15         2.1745    -7.5648    95.5045 H          1           0.0894
     54 H16         4.2279    -6.6866    96.5850 H          1           0.1320
     55 H17         3.3174    -5.2731    97.1678 H          1           0.1306
     56 H18         6.8529    -7.2216    91.3580 H          1           0.1370
     57 H19         4.5707    -9.6840    88.6861 H          1           0.1460
     58 H20         2.8716   -10.0044    90.4308 H          1           0.1494
     59 H21         3.1467    -8.9560    92.6360 H          1           0.1346
     60 H22         7.1050   -10.3870    90.2684 H          1           0.4480
     61 H23         9.3752   -13.0044    90.0009 H          1           0.4486
     62 H24         6.9981   -13.8107    91.1533 H          1           0.1202
     63 H25         5.9669   -13.8001    93.3874 H          1           0.1471
     64 H26         8.5786   -12.5750    97.0290 H          1           0.1278
     65 H27         9.3905   -10.9299    98.6700 H          1           0.1355
     66 H28         8.3344    -8.7116    98.8176 H          1           0.1318
     67 H29         6.4637    -8.1332    97.3263 H          1           0.1304
     68 H30         5.6531    -9.7683    95.6747 H          1           0.1243
     69 H31         8.5237   -10.5807    94.5548 H          1           0.1461
     70 H32         9.5622   -10.5950    92.3240 H          1           0.1466
     71 H33        10.7265   -11.4777    88.5324 H          1           0.2085
     72 H34        10.5818    -9.4414    87.1371 H          1           0.2338
@<TRIPOS>BOND
     1    1    2 2
     2    2    3 am
     3    2   13 1
     4    3    4 1
     5    3   41 1
     6    4    5 1
     7    4   42 1
     8    4   43 1
     9    5    6 1
    10    5   44 1
    11    5   45 1
    12    6    7 1
    13    6   12 1
    14    6    8 1
    15    8    9 1
    16    8   46 1
    17    8   47 1
    18    9   10 1
    19    9   48 1
    20    9   49 1
    21   10   11 1
    22   10   50 1
    23   10   51 1
    24   11   12 1
    25   11   52 1
    26   11   53 1
    27   12   54 1
    28   12   55 1
    29   13   18 ar
    30   13   14 ar
    31   14   15 ar
    32   14   56 1
    33   15   16 ar
    34   15   19 1
    35   16   17 ar
    36   16   57 1
    37   17   18 ar
    38   17   58 1
    39   18   59 1
    40   19   20 2
    41   20   39 1
    42   20   21 1
    43   21   22 1
    44   21   60 1
    45   22   23 1
    46   22   37 2
    47   23   24 1
    48   23   61 1
    49   24   36 ar
    50   24   25 ar
    51   25   26 ar
    52   25   62 1
    53   26   27 ar
    54   26   63 1
    55   27   28 1
    56   27   35 ar
    57   28   29 1
    58   29   34 ar
    59   29   30 ar
    60   30   31 ar
    61   30   64 1
    62   31   32 ar
    63   31   65 1
    64   32   33 ar
    65   32   66 1
    66   33   34 ar
    67   33   67 1
    68   34   68 1
    69   35   36 ar
    70   35   69 1
    71   36   70 1
    72   37   38 1
    73   37   71 1
    74   38   39 2
    75   38   72 1
    76   39   40 1
##########                 Name:              T536787
##########          Protonation:                   13
##########               SMILES:   Cc1ccc(c(c1)C)C/[NH+]=c\2/ccc3ncc(n3[nH]2)c4cccc(c4)C(=O)NCC[NH+](C)C
##########            Long Name:   minio]-5H-imidazo[1,2-b]pyridazin-3-yl]benzoyl]amino]ethyl-dimethyl-ammonium
##########          FlexRecCode: 1
##########               Number:                  313
##########   Ligand Source File: /raidb/db2/rgc/tcams/tcams-0001524.db2.gz
##########           GlobalRank: 453
##########                 Rank:                    1
##########               Setnum:                  388
##########             Matchnum:                 1805
##########                Cloud:                    1
##########        Electrostatic:           -60.480564
##########        Van der Waals:           -22.104948
##########  Ligand Polar Desolv:            21.570496
########## Ligand Apolar Desolv:            -2.772707
##########      Internal Energy:             0.000000
##########      Receptor Energy: 0.0
########## Receptor Desolvation:             0.000000
########## Receptor Hydrophobic:             0.000000
##########         Total Energy: -63.79
##########        Ligand Charge:             2.000000
##########            Arbitrary:    +999.9990
##########     heavy atom count:   33
##########           pose count:    1
##########        Ligand Energy:             0.000000
# num electro vdwattr vdwrepu polsolv apolsol rdesolv rhydroe totalscore fullpol fullapo
#   1    1.70   -1.63    0.64   -0.95   -0.21    0.00    0.00      -0.45   -2.11   -0.47
#   2   10.30   -1.70    0.60   -6.15    0.21    0.00    0.00       3.25  -13.76    0.46
#   3  -10.66   -0.08    0.01    7.95    0.25    0.00    0.00      -2.54   18.03    0.56
#   4    1.39   -1.45    0.42   -0.83   -0.24    0.00    0.00      -0.71   -1.67   -0.48
#   5    0.56   -0.64    0.04    0.10   -0.12    0.00    0.00      -0.06    0.30   -0.36
#   6   -2.47   -0.65    0.03    0.76   -0.14    0.00    0.00      -2.47    2.16   -0.41
#   7   21.88   -0.99    0.13   -5.33    0.63    0.00    0.00      16.32  -19.67    2.31
#   8  -10.61   -0.60    0.03    2.38   -0.13    0.00    0.00      -8.93   11.80   -0.65
#   9    3.45   -0.89    0.22   -2.13    0.09    0.00    0.00       0.73   -9.93    0.40
#  10    2.34   -0.54    0.04   -0.68   -0.08    0.00    0.00       1.08   -3.62   -0.41
#  11    0.62   -0.95    0.23   -0.36   -0.09    0.00    0.00      -0.56   -1.66   -0.42
#  12    0.66   -0.58    0.05   -0.23   -0.08    0.00    0.00      -0.17   -1.26   -0.41
#  13    1.22   -0.27    0.01   -0.27   -0.05    0.00    0.00       0.64   -2.44   -0.44
#  14    1.07   -0.30    0.01   -0.43   -0.06    0.00    0.00       0.29   -3.28   -0.47
#  15    0.77   -0.47    0.03   -0.28   -0.08    0.00    0.00      -0.03   -1.58   -0.45
#  16   -1.27   -0.91    0.12    0.36   -0.18    0.00    0.00      -1.88    1.51   -0.75
#  17   -0.19   -1.40    0.50   -0.20   -0.26    0.00    0.00      -1.57   -0.75   -0.97
#  18    1.95   -3.06    3.54   -2.91    0.72    0.00    0.00       0.24   -8.74    2.16
#  19   -3.22   -2.05    1.24    1.46   -0.79    0.00    0.00      -3.37    4.02   -2.17
#  20   -3.20   -2.14    0.57    0.44   -0.21    0.00    0.00      -4.54    1.01   -0.48
#  21    7.38   -2.16    0.65   -2.09   -0.21    0.00    0.00       3.57   -4.67   -0.47
#  22  -13.97   -1.05    0.09    6.89   -0.72    0.00    0.00      -8.76   19.55   -2.04
#  23   12.58   -1.07    0.16   -4.56    0.17    0.00    0.00       7.29  -15.10    0.57
#  24    6.01   -1.15    0.16   -1.81    0.21    0.00    0.00       3.43   -6.30    0.73
#  25    9.64   -0.87    0.08   -5.68    0.42    0.00    0.00       3.59  -19.07    1.41
#  26   -7.97   -0.02    0.00    4.02    0.13    0.00    0.00      -3.84   17.07    0.57
#  27   -0.90   -0.29    0.01    0.62   -0.06    0.00    0.00      -0.62    3.46   -0.34
#  28    0.32   -0.35    0.01   -0.41   -0.05    0.00    0.00      -0.48   -3.11   -0.37
#  29    0.11   -0.21    0.00   -0.15   -0.04    0.00    0.00      -0.28   -1.86   -0.45
#  30    0.11   -0.15    0.00   -0.21   -0.03    0.00    0.00      -0.28   -3.28   -0.45
#  31    0.01   -0.20    0.00   -0.14   -0.03    0.00    0.00      -0.35   -1.74   -0.41
#  32    0.01   -0.08    0.00   -0.10   -0.01    0.00    0.00      -0.17   -1.89   -0.20
#  33    0.01   -0.46    0.03   -0.55   -0.08    0.00    0.00      -1.04   -3.19   -0.44
#  34    0.10   -0.58    0.03   -0.27   -0.09    0.00    0.00      -0.81   -1.20   -0.41
#  35    0.83   -1.15    0.31   -1.32   -0.07    0.00    0.00      -1.40   -3.39   -0.19
#  36   -4.30   -0.41    0.17    1.37   -0.09    0.00    0.00      -3.25    4.40   -0.28
#  37   -4.40   -1.10    1.16    1.71   -0.11    0.00    0.00      -2.74    3.59   -0.23
#  38   -3.13   -0.37    0.08    1.57   -0.09    0.00    0.00      -1.94    4.68   -0.28
#  39   -2.91   -0.33    0.04    1.87   -0.11    0.00    0.00      -1.45    4.73   -0.28
#  40   -4.53   -0.88    0.65    2.92   -0.16    0.00    0.00      -2.00    5.25   -0.28
#  41   -3.71   -0.38    0.16    1.57   -0.10    0.00    0.00      -2.47    4.30   -0.28
#  42   -2.65   -0.11    0.00    0.70   -0.03    0.00    0.00      -2.09    7.20   -0.28
#  43   -3.25   -0.27    0.04    1.69   -0.07    0.00    0.00      -1.87    6.62   -0.28
#  44   -3.02   -0.33    0.03    0.77   -0.07    0.00    0.00      -2.62    2.28   -0.21
#  45   -1.99   -0.16    0.00    0.32   -0.04    0.00    0.00      -1.87    2.28   -0.28
#  46  -17.65   -0.04    0.00    3.62    0.11    0.00    0.00     -13.96   14.48    0.43
#  47   -5.42   -0.37    0.14    0.37   -0.06    0.00    0.00      -5.34    1.58   -0.24
#  48   -1.08   -0.03    0.00    0.19   -0.01    0.00    0.00      -0.92    5.52   -0.18
#  49   -0.98   -0.05    0.00    0.26   -0.01    0.00    0.00      -0.78    6.36   -0.28
#  50   -0.75   -0.15    0.02    0.87   -0.03    0.00    0.00      -0.04    6.55   -0.22
#  51   -0.68   -0.19    0.03    0.54   -0.05    0.00    0.00      -0.36    3.07   -0.27
#  52   -5.48   -0.51    0.17    2.42   -0.11    0.00    0.00      -3.51    6.16   -0.28
#  53   -9.24   -1.50    4.41    4.35   -0.12    0.00    0.00      -2.10    9.86   -0.28
#  54  -11.53   -0.02    0.00    3.29    0.06    0.00    0.00      -8.19   16.64    0.28
#  55   -1.36   -0.13    0.01    0.86   -0.03    0.00    0.00      -0.66    6.36   -0.24
#  56   -0.79   -0.05    0.00    0.27   -0.01    0.00    0.00      -0.58    6.01   -0.28
#  57   -0.21   -0.03    0.00    0.15   -0.01    0.00    0.00      -0.09    4.67   -0.28
#  58   -0.10   -0.02    0.00    0.05   -0.01    0.00    0.00      -0.08    1.93   -0.28
#  59    0.01   -0.03    0.00    0.03   -0.01    0.00    0.00       0.00    0.87   -0.28
#  60    0.00   -0.01    0.00    0.02   -0.01    0.00    0.00       0.00    0.78   -0.28
#  61   -0.02   -0.02    0.00    0.02   -0.01    0.00    0.00      -0.03    0.82   -0.28
#  62    0.06   -0.14    0.02    0.27   -0.04    0.00    0.00       0.16    1.77   -0.28
#  63   -0.31   -0.80    0.83    0.82   -0.10    0.00    0.00       0.44    2.29   -0.28
#  64   -1.29   -0.39    0.09    0.42   -0.10    0.00    0.00      -1.28    1.16   -0.28
#  65   -0.26   -0.31    0.05    1.35   -0.07    0.00    0.00       0.75    3.90   -0.21

@<TRIPOS>MOLECULE
          T536787        13
   65    68     0     0     0



@<TRIPOS>ATOM
      1 C1         -0.1692    -4.5126    95.1824 C.3        1          -0.0567
      2 N1          1.2398    -4.6963    95.5551 N.4        1          -0.3829
      3 H1          1.6106    -3.8268    95.9078 H          1           0.4312
      4 C2          1.3406    -5.7292    96.5948 C.3        1          -0.0475
      5 C3          2.0082    -5.1132    94.3745 C.3        1          -0.0237
      6 C4          3.4758    -5.3046    94.7626 C.3        1           0.0936
      7 N2          4.2420    -5.7203    93.5852 N.am       1          -0.7286
      8 C5          4.3810    -7.0301    93.2997 C.2        1           0.5680
      9 O1          3.8705    -7.8664    94.0191 O.2        1          -0.5087
     10 C6          5.1543    -7.4498    92.1113 C.ar       1          -0.1226
     11 C7          5.2604    -6.6007    91.0117 C.ar       1          -0.0233
     12 C8          5.9911    -7.0041    89.8957 C.ar       1          -0.0325
     13 C9          6.6121    -8.2559    89.8866 C.ar       1          -0.0947
     14 C10         6.5027    -9.0919    90.9796 C.ar       1          -0.1071
     15 C11         5.7848    -8.6958    92.0909 C.ar       1          -0.0695
     16 C12         6.1086    -6.1104    88.7247 C.2        1           0.0661
     17 C13         5.0803    -5.6197    87.9597 C.2        1           0.0449
     18 N3          5.5977    -4.8500    87.0006 N.2        1          -0.3899
     19 C14         6.8992    -4.8260    87.1172 C.2        1           0.1799
     20 C15         7.9180    -4.1292    86.3208 C.2        1           0.1114
     21 C16         9.2153    -4.4702    86.5534 C.2        1          -0.2176
     22 C17         9.5261    -5.5148    87.5439 C.cat      1           0.5593
     23 N4          8.6009    -5.7807    88.5564 N.pl3      1          -0.4963
     24 N5          7.2534    -5.6093    88.1984 N.pl3      1          -0.2503
     25 N6         10.6483    -6.1819    87.4768 N.pl3      1          -0.5740
     26 H2         11.2846    -5.9908    86.7700 H          1           0.4555
     27 C18        10.9447    -7.2185    88.4687 C.3        1           0.1101
     28 C19        12.2886    -7.8309    88.1691 C.ar       1          -0.1621
     29 C20        12.3776    -8.9263    87.3302 C.ar       1          -0.0772
     30 C21        13.6102    -9.4880    87.0555 C.ar       1          -0.1247
     31 C22        14.7543    -8.9545    87.6197 C.ar       1          -0.0380
     32 C23        16.0982    -9.5665    87.3196 C.3        1          -0.1312
     33 C24        14.6654    -7.8581    88.4566 C.ar       1          -0.1206
     34 C25        13.4327    -7.2940    88.7284 C.ar       1          -0.0520
     35 C26        13.3364    -6.0962    89.6378 C.3        1          -0.1263
     36 H3         -0.5699    -5.4519    94.8014 H          1           0.1311
     37 H4         -0.7393    -4.2033    96.0585 H          1           0.1259
     38 H5         -0.2441    -3.7461    94.4111 H          1           0.1254
     39 H6          2.3861    -5.8656    96.8712 H          1           0.1243
     40 H7          0.7705    -5.4197    97.4706 H          1           0.1255
     41 H8          0.9399    -6.6686    96.2138 H          1           0.1304
     42 H9          1.6077    -6.0527    93.9934 H          1           0.1389
     43 H10         1.9333    -4.3469    93.6030 H          1           0.1381
     44 H11         3.8763    -4.3650    95.1436 H          1           0.0952
     45 H12         3.5507    -6.0709    95.5340 H          1           0.0945
     46 H13         4.6494    -5.0529    93.0111 H          1           0.4079
     47 H14         4.7781    -5.6344    91.0240 H          1           0.1551
     48 H15         7.1785    -8.5701    89.0223 H          1           0.1099
     49 H16         6.9844   -10.0586    90.9672 H          1           0.1446
     50 H17         5.7070    -9.3529    92.9444 H          1           0.1357
     51 H18         4.0300    -5.8226    88.1088 H          1           0.2099
     52 H19         7.6513    -3.3833    85.5868 H          1           0.2065
     53 H20        10.0116    -3.9782    86.0148 H          1           0.2022
     54 H21         8.8695    -6.0608    89.4453 H          1           0.4571
     55 H22        10.9614    -6.7746    89.4641 H          1           0.1108
     56 H23        10.1764    -7.9906    88.4279 H          1           0.1152
     57 H24        11.4839    -9.3433    86.8901 H          1           0.1282
     58 H25        13.6797   -10.3440    86.4008 H          1           0.1351
     59 H26        16.8751    -9.0150    87.8494 H          1           0.0836
     60 H27        16.1043   -10.6064    87.6467 H          1           0.0763
     61 H28        16.2874    -9.5216    86.2475 H          1           0.0765
     62 H29        15.5592    -7.4408    88.8966 H          1           0.1352
     63 H30        14.3335    -5.8180    89.9791 H          1           0.0829
     64 H31        12.8926    -5.2620    89.0944 H          1           0.0838
     65 H32        12.7134    -6.3421    90.4977 H          1           0.0522
@<TRIPOS>BOND
     1    1    2 1
     2    1   36 1
     3    1   37 1
     4    1   38 1
     5    2    3 1
     6    2    4 1
     7    2    5 1
     8    4   39 1
     9    4   40 1
    10    4   41 1
    11    5    6 1
    12    5   42 1
    13    5   43 1
    14    6    7 1
    15    6   44 1
    16    6   45 1
    17    7    8 am
    18    7   46 1
    19    8    9 2
    20    8   10 1
    21   10   15 ar
    22   10   11 ar
    23   11   12 ar
    24   11   47 1
    25   12   13 ar
    26   12   16 1
    27   13   14 ar
    28   13   48 1
    29   14   15 ar
    30   14   49 1
    31   15   50 1
    32   16   24 1
    33   16   17 2
    34   17   18 1
    35   17   51 1
    36   18   19 2
    37   19   24 1
    38   19   20 1
    39   20   21 2
    40   20   52 1
    41   21   22 1
    42   21   53 1
    43   22   23 1
    44   22   25 2
    45   23   24 1
    46   23   54 1
    47   25   26 1
    48   25   27 1
    49   27   28 1
    50   27   55 1
    51   27   56 1
    52   28   34 ar
    53   28   29 ar
    54   29   30 ar
    55   29   57 1
    56   30   31 ar
    57   30   58 1
    58   31   32 1
    59   31   33 ar
    60   32   59 1
    61   32   60 1
    62   32   61 1
    63   33   34 ar
    64   33   62 1
    65   34   35 1
    66   35   63 1
    67   35   64 1
    68   35   65 1
##########                 Name:              T525173
##########          Protonation:                   61
##########               SMILES:   COc1cccc(c1)/N=c\2/[nH]c(cc[nH+]2)NC[C@H](c3cccc(c3)C(F)(F)F)O
##########            Long Name:   yl)imino-1H-pyrimidin-3-ium-6-yl]amino]-1-[3-(trifluoromethyl)phenyl]ethanol
##########          FlexRecCode: 1
##########               Number:                  177
##########   Ligand Source File: /raidb/db2/rgc/tcams/tcams-0000086.db2.gz
##########           GlobalRank: 456
##########                 Rank:                    1
##########               Setnum:                  310
##########             Matchnum:                 5473
##########                Cloud:                    1
##########        Electrostatic:           -40.761757
##########        Van der Waals:           -30.863688
##########  Ligand Polar Desolv:            10.775597
########## Ligand Apolar Desolv:            -2.916690
##########      Internal Energy:             0.000000
##########      Receptor Energy: 0.0
########## Receptor Desolvation:             0.000000
########## Receptor Hydrophobic:             0.000000
##########         Total Energy: -63.77
##########        Ligand Charge:             1.000000
##########            Arbitrary:    +999.9990
##########     heavy atom count:   29
##########           pose count:    1
##########        Ligand Energy:             0.000000
# num electro vdwattr vdwrepu polsolv apolsol rdesolv rhydroe totalscore fullpol fullapo
#   1   -0.20   -0.87    0.13    0.06    0.01    0.00    0.00      -0.88    0.14    0.03
#   2    3.37   -1.41    0.22   -1.38    0.40    0.00    0.00       1.21   -3.18    0.93
#   3   -1.92   -1.65    0.28    0.54   -0.14    0.00    0.00      -2.88    1.18   -0.31
#   4    3.26   -2.39    0.70   -1.34   -0.23    0.00    0.00       0.00   -2.46   -0.42
#   5    1.17   -3.40    1.22   -0.43   -0.29    0.00    0.00      -1.72   -0.71   -0.47
#   6    2.65   -2.50    0.43   -1.20   -0.28    0.00    0.00      -0.89   -2.04   -0.47
#   7   -1.60   -1.66    0.22    1.08   -0.29    0.00    0.00      -2.24    2.17   -0.58
#   8    2.33   -1.41    0.17   -1.07   -0.15    0.00    0.00      -0.12   -2.64   -0.36
#   9    6.04   -1.68    0.23   -4.43    0.94    0.00    0.00       1.11   -9.67    2.05
#  10   -9.54   -1.29    0.17    5.26   -1.88    0.00    0.00      -7.28   12.96   -4.64
#  11   11.15   -1.25    0.12   -5.49    0.40    0.00    0.00       4.93  -14.32    1.05
#  12  -15.40   -1.29    0.14    5.86   -0.79    0.00    0.00     -11.48   15.14   -2.04
#  13   17.97   -1.35    0.12   -7.05    0.67    0.00    0.00      10.36  -17.48    1.66
#  14   -1.03   -0.91    0.08    0.52   -0.15    0.00    0.00      -1.48    1.23   -0.35
#  15   -2.96   -0.59    0.03    1.25   -0.05    0.00    0.00      -2.32    3.57   -0.14
#  16   12.98   -1.64    0.51   -5.69    0.81    0.00    0.00       6.97  -11.99    1.70
#  17    2.79   -0.76    0.04   -0.57   -0.10    0.00    0.00       1.39   -1.96   -0.35
#  18    2.03   -1.34    0.20   -0.41   -0.17    0.00    0.00       0.31   -1.10   -0.44
#  19    2.46   -1.29    0.21   -0.70   -0.19    0.00    0.00       0.50   -1.77   -0.47
#  20    0.76   -1.13    0.17   -0.36   -0.14    0.00    0.00      -0.70   -1.12   -0.44
#  21    1.47   -0.77    0.11   -0.47   -0.09    0.00    0.00       0.26   -2.03   -0.37
#  22    0.66   -0.54    0.02   -0.20   -0.09    0.00    0.00      -0.16   -0.98   -0.44
#  23   -1.00   -0.45    0.09    0.55   -0.01    0.00    0.00      -0.84    2.84   -0.07
#  24    0.22   -0.51    0.08   -0.22   -0.12    0.00    0.00      -0.55   -0.80   -0.44
#  25    0.64   -0.63    0.22   -0.26   -0.12    0.00    0.00      -0.14   -1.07   -0.48
#  26    0.27   -0.13    0.00   -0.10   -0.05    0.00    0.00      -0.01   -0.94   -0.48
#  27   12.82   -2.18    1.09   -4.09   -0.22    0.00    0.00       7.43   -8.68   -0.46
#  28  -10.00   -2.23    0.66    3.76   -0.45    0.00    0.00      -8.26    8.06   -0.97
#  29   13.27   -1.66    0.29   -6.00    0.39    0.00    0.00       6.28  -14.17    0.93
#  30   -9.43   -0.04    0.00    3.41    0.14    0.00    0.00      -5.92   10.02    0.41
#  31   -0.59   -0.31    0.04    0.29   -0.08    0.00    0.00      -0.65    0.99   -0.26
#  32   -0.85   -0.20    0.01    0.32   -0.06    0.00    0.00      -0.80    1.40   -0.28
#  33   -0.56   -0.40    0.34    0.11   -0.05    0.00    0.00      -0.56    0.57   -0.26
#  34   -1.96   -0.71    0.86    0.72   -0.11    0.00    0.00      -1.20    1.45   -0.22
#  35   -3.92   -1.47    1.61    1.07   -0.18    0.00    0.00      -2.90    1.68   -0.28
#  36   -2.51   -0.73    0.23    0.88   -0.16    0.00    0.00      -2.29    1.50   -0.28
#  37   -1.05   -0.21    0.01    0.44   -0.06    0.00    0.00      -0.86    2.09   -0.28
#  38   -7.11   -0.02    0.00    3.64    0.16    0.00    0.00      -3.33   11.44    0.50
#  39  -14.11   -0.02    0.00    4.29    0.18    0.00    0.00      -9.66   13.26    0.56
#  40   -2.39   -0.33    0.04    1.50   -0.11    0.00    0.00      -1.30    3.81   -0.28
#  41   -2.93   -0.44    0.14    1.28   -0.11    0.00    0.00      -2.07    3.20   -0.28
#  42   -1.60   -0.14    0.01    0.37   -0.03    0.00    0.00      -1.40    3.04   -0.28
#  43  -15.69   -0.11    0.03    4.18    0.43    0.00    0.00     -11.16    9.76    1.01
#  44   -4.52   -0.54    0.30    1.59   -0.08    0.00    0.00      -3.24    4.55   -0.24
#  45   -3.52   -0.27    0.03    0.65   -0.08    0.00    0.00      -3.19    2.39   -0.28
#  46   -1.59   -0.29    0.06    0.25   -0.07    0.00    0.00      -1.64    0.92   -0.25
#  47   -1.47   -0.07    0.00    0.15   -0.02    0.00    0.00      -1.41    2.38   -0.28
#  48  -10.79   -1.23    4.11    3.32   -0.12    0.00    0.00      -4.70    7.88   -0.28
#  49   -8.82   -0.88    0.66    4.89   -0.15    0.00    0.00      -4.29    9.15   -0.28

@<TRIPOS>MOLECULE
          T525173        61
   49    51     0     0     0



@<TRIPOS>ATOM
      1 C1          9.1405   -11.4368    95.7430 C.3        1           0.0224
      2 O1          9.8696   -10.8802    96.8387 O.3        1          -0.3142
      3 C2          9.2736    -9.8718    97.5278 C.ar       1           0.1553
      4 C3          9.9298    -9.2820    98.6009 C.ar       1          -0.2031
      5 C4          9.3291    -8.2555    99.3064 C.ar       1          -0.0524
      6 C5          8.0734    -7.8095    98.9496 C.ar       1          -0.1385
      7 C6          7.4047    -8.3965    97.8713 C.ar       1           0.1160
      8 C7          8.0161    -9.4296    97.1565 C.ar       1          -0.2081
      9 N1          6.1613    -7.9580    97.5145 N.2        1          -0.5061
     10 C8          6.0322    -6.9793    96.6305 C.2        1           0.5659
     11 N2          4.7878    -6.4543    96.3748 N.pl3      1          -0.5908
     12 C9          4.6556    -5.4439    95.4628 C.2        1           0.5613
     13 N3          3.4238    -4.9051    95.1925 N.pl3      1          -0.6483
     14 C10         2.2353    -5.4114    95.8832 C.3        1           0.0415
     15 C11         1.6264    -6.5595    95.0754 C.3        1           0.1493
     16 O2          0.7876    -7.3463    95.9236 O.3        1          -0.5408
     17 C12         0.8085    -5.9974    93.9414 C.ar       1          -0.1383
     18 C13        -0.2665    -5.1699    94.2084 C.ar       1          -0.0770
     19 C14        -1.0166    -4.6542    93.1683 C.ar       1          -0.1098
     20 C15        -0.6921    -4.9665    91.8608 C.ar       1          -0.0564
     21 C16         0.3833    -5.7920    91.5941 C.ar       1          -0.1738
     22 C17         1.1364    -6.3043    92.6343 C.ar       1          -0.0523
     23 C18         0.7371    -6.1318    90.1692 C.3        1           0.5068
     24 F1         -0.1596    -5.4979    89.3023 F          1          -0.1718
     25 F2          2.0379    -5.6960    89.8950 F          1          -0.1749
     26 F3          0.6613    -7.5169    89.9875 F          1          -0.1721
     27 C19         5.7872    -4.9740    94.8170 C.2        1          -0.3299
     28 C20         7.0213    -5.5399    95.1125 C.2        1           0.2924
     29 N4          7.1142    -6.5100    96.0017 N.pl3      1          -0.5898
     30 H1          7.9833    -6.8925    96.1999 H          1           0.4544
     31 H2          9.7283   -12.2302    95.2812 H          1           0.0619
     32 H3          8.1976   -11.8468    96.1049 H          1           0.1087
     33 H4          8.9396   -10.6581    95.0072 H          1           0.0625
     34 H5         10.9128    -9.6267    98.8854 H          1           0.1399
     35 H6          9.8448    -7.8017   100.1398 H          1           0.1410
     36 H7          7.6072    -7.0078    99.5030 H          1           0.1365
     37 H8          7.5070    -9.8846    96.3196 H          1           0.1315
     38 H9          4.0082    -6.7985    96.8382 H          1           0.4527
     39 H10         3.3396    -4.1887    94.5441 H          1           0.4489
     40 H11         2.5161    -5.7724    96.8725 H          1           0.1013
     41 H12         1.5038    -4.6096    95.9831 H          1           0.1085
     42 H13         2.4243    -7.1839    94.6732 H          1           0.1301
     43 H14         0.0543    -6.8540    96.3175 H          1           0.3838
     44 H15        -0.5202    -4.9267    95.2295 H          1           0.1328
     45 H16        -1.8568    -4.0084    93.3769 H          1           0.1445
     46 H17        -1.2780    -4.5630    91.0482 H          1           0.1472
     47 H18         1.9787    -6.9472    92.4257 H          1           0.1389
     48 H19         5.7111    -4.1772    94.0920 H          1           0.1976
     49 H20         7.9098    -5.1810    94.6144 H          1           0.2145
@<TRIPOS>BOND
     1    1    2 1
     2    1   31 1
     3    1   32 1
     4    1   33 1
     5    2    3 1
     6    3    8 ar
     7    3    4 ar
     8    4    5 ar
     9    4   34 1
    10    5    6 ar
    11    5   35 1
    12    6    7 ar
    13    6   36 1
    14    7    8 ar
    15    7    9 1
    16    8   37 1
    17    9   10 2
    18   10   29 1
    19   10   11 1
    20   11   12 1
    21   11   38 1
    22   12   13 1
    23   12   27 2
    24   13   14 1
    25   13   39 1
    26   14   15 1
    27   14   40 1
    28   14   41 1
    29   15   16 1
    30   15   17 1
    31   15   42 1
    32   16   43 1
    33   17   22 ar
    34   17   18 ar
    35   18   19 ar
    36   18   44 1
    37   19   20 ar
    38   19   45 1
    39   20   21 ar
    40   20   46 1
    41   21   22 ar
    42   21   23 1
    43   22   47 1
    44   23   24 1
    45   23   25 1
    46   23   26 1
    47   27   28 1
    48   27   48 1
    49   28   29 2
    50   28   49 1
    51   29   30 1
##########                 Name:              T526119
##########          Protonation:                   12
##########               SMILES:   CC1(NC(=[NH2+])NC(=[NH2+])N1OCCCCOc2ccc(cc2)OC)C
##########            Long Name:   [4-(4-methoxyphenoxy)butoxy]-6,6-dimethyl-1,3,5-triazinan-2-ylidene]ammonium
##########          FlexRecCode: 1
##########               Number:                  246
##########   Ligand Source File: /raidb/db2/rgc/tcams/tcams-0000131.db2.gz
##########           GlobalRank: 456
##########                 Rank:                    1
##########               Setnum:                  150
##########             Matchnum:                 4087
##########                Cloud:                    1
##########        Electrostatic:           -68.856766
##########        Van der Waals:           -21.602169
##########  Ligand Polar Desolv:            28.374193
########## Ligand Apolar Desolv:            -1.683776
##########      Internal Energy:             0.000000
##########      Receptor Energy: 0.0
########## Receptor Desolvation:             0.000000
########## Receptor Hydrophobic:             0.000000
##########         Total Energy: -63.77
##########        Ligand Charge:             2.000000
##########            Arbitrary:    +999.9990
##########     heavy atom count:   24
##########           pose count:    1
##########        Ligand Energy:             0.000000
# num electro vdwattr vdwrepu polsolv apolsol rdesolv rhydroe totalscore fullpol fullapo
#   1   -0.17   -1.72    0.46    0.07    0.02    0.00    0.00      -1.34    0.12    0.03
#   2    2.47   -1.51    0.25   -1.38    0.52    0.00    0.00       0.36   -2.46    0.93
#   3   -0.72   -1.50    0.24    0.07   -0.14    0.00    0.00      -2.05    0.15   -0.31
#   4    1.60   -1.52    0.26   -0.68   -0.17    0.00    0.00      -0.51   -1.73   -0.43
#   5    0.97   -1.21    0.11   -0.55   -0.16    0.00    0.00      -0.84   -1.57   -0.46
#   6   -0.37   -1.43    0.39    0.36   -0.10    0.00    0.00      -1.15    1.17   -0.31
#   7    1.70   -1.03    0.28   -1.31    0.23    0.00    0.00      -0.13   -5.18    0.90
#   8   -0.34   -0.57    0.12    0.08   -0.02    0.00    0.00      -0.72    0.38   -0.09
#   9    1.59   -0.28    0.01   -0.47   -0.04    0.00    0.00       0.80   -2.68   -0.24
#  10    1.49   -0.29    0.01   -0.54   -0.04    0.00    0.00       0.64   -3.34   -0.24
#  11   -0.06   -0.42    0.03    0.09   -0.03    0.00    0.00      -0.38    0.44   -0.12
#  12    1.07   -0.64    0.06   -0.92    0.10    0.00    0.00      -0.33   -3.96    0.43
#  13    9.92   -0.89    0.09   -5.55    0.23    0.00    0.00       3.80  -21.05    0.87
#  14  -23.77   -1.31    0.20   11.97   -1.47    0.00    0.00     -14.38   35.47   -4.36
#  15   34.01   -5.13    7.49  -13.26    0.39    0.00    0.00      23.50  -30.46    0.89
#  16  -27.17   -0.16    0.03    9.19    0.20    0.00    0.00     -17.91   21.15    0.45
#  17  -27.41   -0.12    0.02   11.00    0.28    0.00    0.00     -16.23   23.88    0.60
#  18   17.71   -0.95    0.04  -10.71    0.40    0.00    0.00       6.49  -31.03    1.15
#  19  -18.45   -1.11    0.08   14.36   -1.74    0.00    0.00      -6.87   37.21   -4.52
#  20   17.67   -2.30    0.47  -15.30    0.44    0.00    0.00       0.97  -31.28    0.89
#  21  -12.62   -0.06    0.00   11.27    0.28    0.00    0.00      -1.13   24.34    0.60
#  22  -14.36   -0.04    0.00   11.79    0.30    0.00    0.00      -2.32   23.49    0.60
#  23   15.62   -0.84    0.04  -10.11    0.48    0.00    0.00       5.19  -32.02    1.53
#  24   -7.28   -0.50    0.03    4.84   -0.10    0.00    0.00      -3.02   17.73   -0.38
#  25    3.75   -1.10    0.24   -3.12   -0.07    0.00    0.00      -0.31   -7.98   -0.18
#  26    1.89   -0.41    0.02   -1.50   -0.04    0.00    0.00      -0.03   -6.66   -0.16
#  27    0.33   -1.87    0.68   -0.69   -0.14    0.00    0.00      -1.69   -2.04   -0.43
#  28    0.58   -1.49    0.20   -0.59   -0.19    0.00    0.00      -1.49   -1.44   -0.46
#  29   -0.05   -1.19    1.35    0.46   -0.16    0.00    0.00       0.41    0.77   -0.27
#  30   -0.52   -0.59    0.23    0.43   -0.15    0.00    0.00      -0.60    0.78   -0.27
#  31   -0.87   -0.42    0.05    0.59   -0.13    0.00    0.00      -0.77    1.27   -0.28
#  32   -1.87   -0.31    0.05    0.47   -0.06    0.00    0.00      -1.73    1.64   -0.22
#  33   -1.83   -0.19    0.01    0.37   -0.05    0.00    0.00      -1.69    1.95   -0.28
#  34   -0.48   -0.11    0.01    0.15   -0.03    0.00    0.00      -0.47    1.34   -0.27
#  35    0.09   -0.46    0.49    0.29   -0.05    0.00    0.00       0.36    1.60   -0.27
#  36   -1.84   -0.13    0.01    0.37   -0.04    0.00    0.00      -1.63    2.65   -0.28
#  37   -0.92   -0.05    0.00    0.08   -0.01    0.00    0.00      -0.89    2.00   -0.28
#  38   -0.52   -0.08    0.01    0.16   -0.02    0.00    0.00      -0.46    1.89   -0.28
#  39   -1.36   -0.09    0.00    0.23   -0.03    0.00    0.00      -1.24    2.59   -0.28
#  40   -2.45   -0.35    0.13    1.11   -0.05    0.00    0.00      -1.60    5.23   -0.22
#  41   -1.34   -0.08    0.00    0.31   -0.02    0.00    0.00      -1.13    3.82   -0.27
#  42  -12.86   -0.01    0.00    4.33    0.10    0.00    0.00      -8.45   25.91    0.59
#  43  -11.18   -0.02    0.00    4.43    0.12    0.00    0.00      -6.64   21.22    0.58
#  44   -2.60   -0.24    0.01    0.85   -0.07    0.00    0.00      -2.04    3.20   -0.27
#  45   -2.88   -0.52    0.15    1.51   -0.10    0.00    0.00      -1.84    4.10   -0.28
#  46   -0.79   -0.73    0.84    1.53   -0.08    0.00    0.00       0.76    4.95   -0.26
#  47   -1.65   -0.24    0.08    0.43   -0.05    0.00    0.00      -1.44    2.28   -0.28
#  48   -0.80   -0.11    0.01    0.42   -0.03    0.00    0.00      -0.52    3.82   -0.28
#  49   -0.59   -0.08    0.00    0.19   -0.02    0.00    0.00      -0.50    2.51   -0.26
#  50   -0.03   -0.47    0.26    0.79   -0.05    0.00    0.00       0.49    3.22   -0.22
#  51   -1.13   -0.34    0.06    0.46   -0.09    0.00    0.00      -1.03    1.41   -0.28

@<TRIPOS>MOLECULE
          T526119        12
   51    52     0     0     0



@<TRIPOS>ATOM
      1 C1          8.8639   -13.0438    97.8229 C.3        1           0.0246
      2 O1          8.5989   -11.6588    98.0549 O.3        1          -0.3155
      3 C2          7.8851   -10.9991    97.1040 C.ar       1           0.1030
      4 C3          7.5970    -9.6517    97.2633 C.ar       1          -0.1677
      5 C4          6.8718    -8.9816    96.2974 C.ar       1          -0.1054
      6 C5          6.4320    -9.6559    95.1680 C.ar       1           0.0818
      7 O2          5.7177    -8.9963    94.2173 O.3        1          -0.3166
      8 C6          5.8478    -9.4580    92.8712 C.3        1           0.0588
      9 C7          5.6526    -8.2850    91.9086 C.3        1          -0.1161
     10 C8          4.2589    -7.6865    92.1100 C.3        1          -0.1132
     11 C9          4.0636    -6.5134    91.1473 C.3        1           0.0030
     12 O3          2.7620    -5.9545    91.3355 O.3        1          -0.0694
     13 N1          2.5290    -5.4648    92.6435 N.pl3      1          -0.4874
     14 C10         3.5618    -4.9643    93.4239 C.cat      1           0.7648
     15 N2          4.4638    -4.1600    92.9380 N.pl3      1          -0.6720
     16 H1          4.4251    -3.8946    92.0058 H          1           0.4604
     17 H2          5.1740    -3.8264    93.5082 H          1           0.4600
     18 N3          3.5792    -5.3704    94.7570 N.pl3      1          -0.6709
     19 C11         2.3383    -5.4595    95.3853 C.cat      1           0.7709
     20 N4          2.1654    -5.0902    96.6223 N.pl3      1          -0.6665
     21 H3          2.9124    -4.7413    97.1332 H          1           0.4605
     22 H4          1.2895    -5.1641    97.0325 H          1           0.4687
     23 N5          1.2970    -5.9634    94.6182 N.pl3      1          -0.7074
     24 C12         1.1774    -5.4588    93.2333 C.3        1           0.4036
     25 C13         0.6212    -4.0335    93.2417 C.3        1          -0.1920
     26 C14         0.2543    -6.3727    92.4249 C.3        1          -0.1739
     27 C15         6.7212   -11.0029    95.0080 C.ar       1          -0.1660
     28 C16         7.4496   -11.6722    95.9721 C.ar       1          -0.1139
     29 H5          9.4397   -13.4479    98.6555 H          1           0.0577
     30 H6          7.9215   -13.5846    97.7365 H          1           0.0576
     31 H7          9.4327   -13.1552    96.8997 H          1           0.1054
     32 H8          7.9394    -9.1266    98.1427 H          1           0.1394
     33 H9          6.6469    -7.9326    96.4218 H          1           0.1347
     34 H10         6.8406    -9.8845    92.7277 H          1           0.0666
     35 H11         5.0934   -10.2195    92.6737 H          1           0.0650
     36 H12         6.4069    -7.5234    92.1061 H          1           0.0812
     37 H13         5.7518    -8.6372    90.8818 H          1           0.0848
     38 H14         3.5045    -8.4480    91.9126 H          1           0.0959
     39 H15         4.1597    -7.3343    93.1367 H          1           0.0903
     40 H16         4.8181    -5.7519    91.3448 H          1           0.0692
     41 H17         4.1629    -6.8656    90.1206 H          1           0.0957
     42 H18         4.4057    -5.5789    95.2199 H          1           0.4809
     43 H19         0.6744    -6.6154    94.9762 H          1           0.4664
     44 H20        -0.3774    -4.0358    93.6786 H          1           0.1133
     45 H21         1.2748    -3.3919    93.8326 H          1           0.1248
     46 H22         0.5698    -3.6575    92.2199 H          1           0.0694
     47 H23        -0.7426    -6.3639    92.8656 H          1           0.1011
     48 H24         0.2001    -6.0161    91.3963 H          1           0.1155
     49 H25         0.6479    -7.3890    92.4369 H          1           0.1109
     50 H26         6.3790   -11.5280    94.1284 H          1           0.1313
     51 H27         7.6778   -12.7203    95.8460 H          1           0.1368
@<TRIPOS>BOND
     1    1    2 1
     2    1   29 1
     3    1   30 1
     4    1   31 1
     5    2    3 1
     6    3   28 ar
     7    3    4 ar
     8    4    5 ar
     9    4   32 1
    10    5    6 ar
    11    5   33 1
    12    6    7 1
    13    6   27 ar
    14    7    8 1
    15    8    9 1
    16    8   34 1
    17    8   35 1
    18    9   10 1
    19    9   36 1
    20    9   37 1
    21   10   11 1
    22   10   38 1
    23   10   39 1
    24   11   12 1
    25   11   40 1
    26   11   41 1
    27   12   13 1
    28   13   24 1
    29   13   14 1
    30   14   15 2
    31   14   18 1
    32   15   16 1
    33   15   17 1
    34   18   19 1
    35   18   42 1
    36   19   20 2
    37   19   23 1
    38   20   21 1
    39   20   22 1
    40   23   24 1
    41   23   43 1
    42   24   25 1
    43   24   26 1
    44   25   44 1
    45   25   45 1
    46   25   46 1
    47   26   47 1
    48   26   48 1
    49   26   49 1
    50   27   28 ar
    51   27   50 1
    52   28   51 1
##########                 Name:              T529054
##########          Protonation:                   99
##########               SMILES:   C[C@@H](CCCc1ccccc1)[NH2+]C[C@H](c2ccc(c(c2)C(=O)OC)O)O
##########            Long Name:   droxy-3-methoxycarbonyl-phenyl)ethyl]-[(1S)-1-methyl-4-phenyl-butyl]ammonium
##########          FlexRecCode: 1
##########               Number:                  386
##########   Ligand Source File: /raidb/db2/rgc/tcams/tcams-0000501.db2.gz
##########           GlobalRank: 456
##########                 Rank:                    1
##########               Setnum:                    9
##########             Matchnum:                    1
##########                Cloud:                    1
##########        Electrostatic:           -48.790268
##########        Van der Waals:           -20.289951
##########  Ligand Polar Desolv:             7.392327
########## Ligand Apolar Desolv:            -2.082774
##########      Internal Energy:             0.000000
##########      Receptor Energy: 0.0
########## Receptor Desolvation:             0.000000
########## Receptor Hydrophobic:             0.000000
##########         Total Energy: -63.77
##########        Ligand Charge:             1.000000
##########            Arbitrary:    +999.9990
##########     heavy atom count:   26
##########           pose count:    1
##########        Ligand Energy:             0.000000
# num electro vdwattr vdwrepu polsolv apolsol rdesolv rhydroe totalscore fullpol fullapo
#   1   -0.06   -0.20    0.02    0.02    0.00    0.00    0.00      -0.21    0.18    0.04
#   2    0.82   -0.51    0.13   -0.38    0.04    0.00    0.00       0.10   -2.63    0.31
#   3   -1.63   -0.25    0.02    0.25   -0.02    0.00    0.00      -1.64    2.46   -0.16
#   4    1.20   -0.10    0.00   -0.01   -0.03    0.00    0.00       1.05   -0.20   -0.58
#   5    1.43   -0.33    0.01   -0.27   -0.05    0.00    0.00       0.79   -2.23   -0.41
#   6    0.33   -0.28    0.01   -0.05   -0.05    0.00    0.00      -0.05   -0.39   -0.43
#   7    3.59   -0.71    0.07   -0.58   -0.07    0.00    0.00       2.30   -2.73   -0.35
#   8    1.65   -1.70    0.52   -0.16   -0.14    0.00    0.00       0.17   -0.48   -0.44
#   9    3.93   -1.09    0.11   -0.90   -0.16    0.00    0.00       1.89   -2.59   -0.46
#  10   -3.20   -0.64    0.04    0.22   -0.08    0.00    0.00      -3.65    0.89   -0.31
#  11    6.65   -0.85    0.09   -0.76    0.14    0.00    0.00       5.27   -2.64    0.49
#  12   -3.45   -0.61    0.11    1.00   -0.03    0.00    0.00      -2.99    4.42   -0.14
#  13   19.13   -2.39    1.40   -5.44    0.56    0.00    0.00      13.26  -16.06    1.64
#  14    1.57   -1.06    0.63   -0.26   -0.09    0.00    0.00       0.78   -1.01   -0.36
#  15   18.69   -1.76    2.00   -4.51    0.16    0.00    0.00      14.59  -17.30    0.63
#  16  -22.78   -0.10    0.02    4.84    0.15    0.00    0.00     -17.87   16.91    0.53
#  17  -10.25   -0.01    0.00    1.93    0.05    0.00    0.00      -8.27   16.71    0.44
#  18   -0.86   -1.04    0.59    0.65   -0.07    0.00    0.00      -0.74    2.28   -0.24
#  19    6.30   -0.94    0.21   -2.29   -0.08    0.00    0.00       3.21   -5.80   -0.19
#  20    2.34   -0.50    0.03   -1.01   -0.05    0.00    0.00       0.82   -3.92   -0.21
#  21    1.87   -0.70    0.08   -1.02   -0.07    0.00    0.00       0.16   -3.18   -0.21
#  22    0.44   -0.91    0.16   -0.58   -0.08    0.00    0.00      -0.97   -1.70   -0.23
#  23    0.82   -1.43    0.19   -0.40   -0.13    0.00    0.00      -0.95   -1.08   -0.36
#  24    0.85   -1.51    0.24   -0.75   -0.20    0.00    0.00      -1.36   -1.68   -0.45
#  25    1.02   -1.89    0.50   -0.80   -0.25    0.00    0.00      -1.41   -1.49   -0.47
#  26    1.60   -2.56    1.17   -0.77   -0.26    0.00    0.00      -0.83   -1.40   -0.47
#  27    2.02   -2.29    0.56   -0.76   -0.26    0.00    0.00      -0.73   -1.35   -0.47
#  28    1.60   -1.62    0.22   -0.81   -0.22    0.00    0.00      -0.83   -1.63   -0.45
#  29   -0.19   -0.08    0.01    0.16   -0.02    0.00    0.00      -0.13    2.00   -0.28
#  30   -0.09   -0.02    0.00    0.01   -0.01    0.00    0.00      -0.11    0.21   -0.28
#  31   -0.09   -0.04    0.00    0.01   -0.01    0.00    0.00      -0.13    0.22   -0.28
#  32   -1.28   -0.03    0.00    0.12   -0.01    0.00    0.00      -1.20    3.68   -0.27
#  33   -6.09   -1.06    1.19    2.38   -0.09    0.00    0.00      -3.68    6.01   -0.23
#  34   -5.03   -0.32    0.04    0.74   -0.10    0.00    0.00      -4.67    2.06   -0.28
#  35  -10.19   -0.03    0.00    0.89    0.38    0.00    0.00      -8.96    2.86    1.22
#  36   -1.92   -0.06    0.00    0.30   -0.02    0.00    0.00      -1.69    4.88   -0.27
#  37  -22.39   -0.18    0.05    5.23    0.41    0.00    0.00     -16.89   12.81    1.00
#  38   -3.01   -0.11    0.01    0.69   -0.03    0.00    0.00      -2.46    5.77   -0.28
#  39   -5.88   -0.82    1.31    1.86   -0.07    0.00    0.00      -3.60    6.07   -0.22
#  40   -5.70   -0.59    0.56    1.55   -0.08    0.00    0.00      -4.27    5.26   -0.28
#  41   -2.38   -0.27    0.03    0.68   -0.07    0.00    0.00      -2.01    2.74   -0.28
#  42   -4.99   -0.58    0.46    0.57   -0.11    0.00    0.00      -4.65    1.46   -0.28
#  43   -2.20   -0.15    0.01    0.42   -0.03    0.00    0.00      -1.95    3.11   -0.21
#  44   -1.07   -0.17    0.03    0.26   -0.04    0.00    0.00      -0.99    2.00   -0.28
#  45   -1.13   -0.12    0.01    0.38   -0.03    0.00    0.00      -0.89    3.32   -0.28
#  46   -1.04   -0.52    0.33    0.81   -0.05    0.00    0.00      -0.47    3.33   -0.22
#  47   -1.35   -0.18    0.01    0.29   -0.05    0.00    0.00      -1.28    1.71   -0.28
#  48    0.10   -0.66    0.67    0.34   -0.09    0.00    0.00       0.36    1.07   -0.28
#  49   -0.32   -0.23    0.03    0.37   -0.06    0.00    0.00      -0.21    1.86   -0.28
#  50   -0.69   -0.26    0.02    0.83   -0.08    0.00    0.00      -0.18    2.88   -0.28
#  51   -0.82   -0.39    0.04    0.65   -0.14    0.00    0.00      -0.64    1.35   -0.28
#  52   -1.80   -1.01    2.34    0.40   -0.15    0.00    0.00      -0.24    0.73   -0.28
#  53   -2.95   -0.63    0.18    0.51   -0.16    0.00    0.00      -3.05    0.90   -0.28
#  54   -1.87   -0.27    0.02    0.55   -0.08    0.00    0.00      -1.66    1.81   -0.28

@<TRIPOS>MOLECULE
          T529054        99
   54    55     0     0     0



@<TRIPOS>ATOM
      1 C1          9.9442   -10.3731    85.2756 C.3        1           0.0337
      2 O1          9.5313    -9.0943    85.7619 O.3        1          -0.3547
      3 C2          8.9786    -9.0564    86.9903 C.2        1           0.4987
      4 O2          8.8508   -10.0808    87.6311 O.2        1          -0.4751
      5 C3          8.5291    -7.7719    87.5568 C.ar       1          -0.1491
      6 C4          7.4606    -7.7363    88.4572 C.ar       1          -0.0267
      7 C5          7.0454    -6.5324    88.9828 C.ar       1          -0.1679
      8 C6          7.6818    -5.3555    88.6228 C.ar       1          -0.0546
      9 C7          8.7384    -5.3760    87.7347 C.ar       1          -0.1498
     10 C8          9.1743    -6.5794    87.2001 C.ar       1           0.1994
     11 O3         10.2159    -6.6018    86.3317 O.3        1          -0.4756
     12 C9          5.8932    -6.4955    89.9535 C.3        1           0.1391
     13 O4          5.2055    -5.2491    89.8294 O.3        1          -0.5447
     14 C10         6.4237    -6.6452    91.3807 C.3        1          -0.0485
     15 N1          5.4218    -6.1437    92.3307 N.4        1          -0.5055
     16 H1          5.2363    -5.1702    92.1413 H          1           0.4300
     17 H2          4.5692    -6.6740    92.2315 H          1           0.4272
     18 C11         5.9311    -6.2875    93.7011 C.3        1           0.0256
     19 C12         5.1609    -5.3492    94.6325 C.3        1          -0.1845
     20 C13         5.7446    -7.7334    94.1655 C.3        1          -0.1475
     21 C14         6.6852    -8.0176    95.3383 C.3        1          -0.1294
     22 C15         6.4987    -9.4635    95.8027 C.3        1          -0.0783
     23 C16         7.4251    -9.7435    96.9579 C.ar       1          -0.0973
     24 C17         7.9193   -11.0194    97.1540 C.ar       1          -0.1198
     25 C18         8.7690   -11.2763    98.2136 C.ar       1          -0.1160
     26 C19         9.1250   -10.2569    99.0769 C.ar       1          -0.1166
     27 C20         8.6315    -8.9807    98.8802 C.ar       1          -0.1148
     28 C21         7.7852    -8.7230    97.8180 C.ar       1          -0.1167
     29 H3         10.3710   -10.2622    84.2788 H          1           0.1078
     30 H4         10.6936   -10.7924    85.9470 H          1           0.0655
     31 H5          9.0831   -11.0399    85.2302 H          1           0.0652
     32 H6          6.9611    -8.6511    88.7401 H          1           0.1476
     33 H7          7.3490    -4.4162    89.0395 H          1           0.1348
     34 H8          9.2294    -4.4542    87.4590 H          1           0.1500
     35 H9         10.5941    -5.7308    86.1484 H          1           0.4091
     36 H10         5.2064    -7.3128    89.7336 H          1           0.1332
     37 H11         5.7570    -4.4758    90.0114 H          1           0.3886
     38 H12         6.6241    -7.6969    91.5855 H          1           0.1455
     39 H13         7.3449    -6.0723    91.4879 H          1           0.1397
     40 H14         6.9907    -6.0325    93.7236 H          1           0.1404
     41 H15         5.5387    -5.4558    95.6493 H          1           0.0834
     42 H16         5.2937    -4.3192    94.3017 H          1           0.1077
     43 H17         4.1013    -5.6043    94.6100 H          1           0.0807
     44 H18         4.7127    -7.8828    94.4828 H          1           0.1151
     45 H19         5.9738    -8.4114    93.3434 H          1           0.0912
     46 H20         7.7172    -7.8682    95.0208 H          1           0.0590
     47 H21         6.4561    -7.3395    96.1604 H          1           0.0808
     48 H22         5.4667    -9.6129    96.1201 H          1           0.0805
     49 H23         6.7279   -10.1416    94.9806 H          1           0.0774
     50 H24         7.6412   -11.8158    96.4795 H          1           0.1194
     51 H25         9.1546   -12.2734    98.3673 H          1           0.1247
     52 H26         9.7884   -10.4577    99.9052 H          1           0.1254
     53 H27         8.9093    -8.1845    99.5548 H          1           0.1253
     54 H28         7.4027    -7.7251    97.6622 H          1           0.1213
@<TRIPOS>BOND
     1    1    2 1
     2    1   29 1
     3    1   30 1
     4    1   31 1
     5    2    3 1
     6    3    4 2
     7    3    5 1
     8    5   10 ar
     9    5    6 ar
    10    6    7 ar
    11    6   32 1
    12    7    8 ar
    13    7   12 1
    14    8    9 ar
    15    8   33 1
    16    9   10 ar
    17    9   34 1
    18   10   11 1
    19   11   35 1
    20   12   13 1
    21   12   14 1
    22   12   36 1
    23   13   37 1
    24   14   15 1
    25   14   38 1
    26   14   39 1
    27   15   16 1
    28   15   17 1
    29   15   18 1
    30   18   19 1
    31   18   20 1
    32   18   40 1
    33   19   41 1
    34   19   42 1
    35   19   43 1
    36   20   21 1
    37   20   44 1
    38   20   45 1
    39   21   22 1
    40   21   46 1
    41   21   47 1
    42   22   23 1
    43   22   48 1
    44   22   49 1
    45   23   28 ar
    46   23   24 ar
    47   24   25 ar
    48   24   50 1
    49   25   26 ar
    50   25   51 1
    51   26   27 ar
    52   26   52 1
    53   27   28 ar
    54   27   53 1
    55   28   54 1
##########                 Name:              T526936
##########          Protonation:                   42
##########               SMILES:   CCCc1ccc(cc1)/N=c/2\[nH]c(cc([nH+]2)C)N(CC)CCC[NH+]3CCCCC3
##########            Long Name:   peridin-1-ium-1-ylpropyl)-2-(4-propylphenyl)imino-1H-pyrimidin-3-ium-6-amine
##########          FlexRecCode: 1
##########               Number:                   68
##########   Ligand Source File: /raidb/db2/rgc/tcams/tcams-0000206.db2.gz
##########           GlobalRank: 457
##########                 Rank:                    1
##########               Setnum:                   69
##########             Matchnum:                 1883
##########                Cloud:                    1
##########        Electrostatic:           -55.302635
##########        Van der Waals:           -15.853964
##########  Ligand Polar Desolv:            10.816694
########## Ligand Apolar Desolv:            -3.424576
##########      Internal Energy:             0.000000
##########      Receptor Energy: 0.0
########## Receptor Desolvation:             0.000000
########## Receptor Hydrophobic:             0.000000
##########         Total Energy: -63.76
##########        Ligand Charge:             2.000000
##########            Arbitrary:    +999.9990
##########     heavy atom count:   29
##########           pose count:    1
##########        Ligand Energy:             0.000000
# num electro vdwattr vdwrepu polsolv apolsol rdesolv rhydroe totalscore fullpol fullapo
#   1    0.13   -0.54    0.14   -0.53   -0.04    0.00    0.00      -0.84   -2.77   -0.19
#   2    0.13   -0.46    0.08   -0.44   -0.04    0.00    0.00      -0.74   -2.43   -0.25
#   3    0.10   -0.21    0.01   -0.20   -0.03    0.00    0.00      -0.33   -1.60   -0.23
#   4    0.11   -0.32    0.01   -0.29   -0.05    0.00    0.00      -0.54   -2.32   -0.36
#   5    0.17   -0.76    0.09   -0.49   -0.10    0.00    0.00      -1.09   -2.25   -0.46
#   6    0.24   -0.81    0.08   -0.88   -0.12    0.00    0.00      -1.50   -3.34   -0.47
#   7   -0.20   -0.66    0.09    0.50   -0.11    0.00    0.00      -0.38    2.72   -0.58
#   8    0.34   -0.33    0.02   -0.53   -0.04    0.00    0.00      -0.54   -4.58   -0.37
#   9    0.14   -0.19    0.00   -0.17   -0.04    0.00    0.00      -0.25   -2.13   -0.46
#  10    1.91   -2.60    3.28   -3.73    0.48    0.00    0.00      -0.66  -15.87    2.04
#  11   -2.81   -1.24    0.59    4.02   -1.00    0.00    0.00      -0.44   18.51   -4.62
#  12    5.27   -0.39    0.01   -3.26    0.15    0.00    0.00       1.78  -21.31    0.95
#  13   -8.31   -0.41    0.01    3.13   -0.32    0.00    0.00      -5.89   19.61   -2.01
#  14    6.26   -0.57    0.03   -2.43   -0.09    0.00    0.00       3.20  -11.42   -0.42
#  15   -6.45   -0.82    0.06    3.15   -0.22    0.00    0.00      -4.27   10.58   -0.75
#  16    3.81   -1.09    0.32   -1.85   -0.08    0.00    0.00       1.11   -5.15   -0.21
#  17    8.92   -2.03    1.34   -5.01    0.28    0.00    0.00       3.50  -17.40    0.97
#  18  -12.35   -0.12    0.02    4.74    0.19    0.00    0.00      -7.52   14.15    0.58
#  19    9.67   -0.41    0.02   -3.29    0.22    0.00    0.00       6.21  -20.24    1.38
#  20   -1.03   -0.16    0.00    0.39   -0.05    0.00    0.00      -0.84    3.78   -0.44
#  21    2.33   -0.48    0.10   -1.13   -0.04    0.00    0.00       0.78   -6.20   -0.21
#  22   -2.60   -0.84    0.28    0.60   -0.09    0.00    0.00      -2.66    2.46   -0.39
#  23    3.46   -0.35    0.03   -1.38   -0.04    0.00    0.00       1.71   -7.76   -0.22
#  24    0.26   -0.70    0.13   -0.05   -0.09    0.00    0.00      -0.45   -0.19   -0.35
#  25   13.64   -1.38    0.93   -4.11    0.07    0.00    0.00       9.15  -15.35    0.27
#  26  -19.55   -0.06    0.01    4.74    0.13    0.00    0.00     -14.75   20.25    0.54
#  27    0.24   -0.42    0.02    0.08   -0.08    0.00    0.00      -0.16    0.37   -0.37
#  28    2.93   -0.53    0.02   -1.41   -0.07    0.00    0.00       0.94   -4.83   -0.25
#  29    3.74   -0.99    0.16   -1.80   -0.10    0.00    0.00       1.01   -4.51   -0.25
#  30    5.94   -1.61    0.56   -2.47   -0.13    0.00    0.00       2.31   -4.93   -0.25
#  31    0.32   -1.71    1.13    0.32   -0.16    0.00    0.00      -0.11    0.78   -0.38
#  32   -0.04   -0.21    0.06    0.19   -0.05    0.00    0.00      -0.05    1.09   -0.28
#  33   -0.04   -0.05    0.00    0.09   -0.02    0.00    0.00      -0.02    1.29   -0.28
#  34   -0.05   -0.32    0.20    0.01   -0.06    0.00    0.00      -0.21    0.07   -0.28
#  35   -0.06   -0.07    0.00    0.03   -0.02    0.00    0.00      -0.12    0.47   -0.28
#  36   -0.08   -0.56    0.87    0.16   -0.06    0.00    0.00       0.32    0.72   -0.28
#  37   -0.08   -0.07    0.00    0.22   -0.02    0.00    0.00       0.05    2.95   -0.28
#  38   -0.07   -0.03    0.00    0.07   -0.01    0.00    0.00      -0.04    2.40   -0.28
#  39   -0.18   -0.28    0.07    0.66   -0.06    0.00    0.00       0.19    2.96   -0.28
#  40   -0.37   -0.33    0.10    0.56   -0.07    0.00    0.00      -0.10    2.34   -0.28
#  41   -0.23   -0.06    0.00    0.26   -0.02    0.00    0.00      -0.05    3.74   -0.28
#  42   -0.15   -0.02    0.00    0.11   -0.01    0.00    0.00      -0.07    4.10   -0.28
#  43   -2.37    0.00    0.00    0.79    0.01    0.00    0.00      -1.57   16.31    0.27
#  44   -3.92   -0.14    0.01    1.16   -0.03    0.00    0.00      -2.91    8.57   -0.21
#  45   -4.12   -0.76    0.69    1.64   -0.10    0.00    0.00      -2.65    4.43   -0.28
#  46   -3.63   -0.47    0.18    1.01   -0.09    0.00    0.00      -3.01    3.05   -0.28
#  47   -1.51   -0.17    0.02    0.76   -0.05    0.00    0.00      -0.94    4.55   -0.28
#  48   -0.84   -0.03    0.00    0.21   -0.01    0.00    0.00      -0.68    6.05   -0.28
#  49   -0.81   -0.03    0.00    0.15   -0.01    0.00    0.00      -0.69    4.88   -0.22
#  50   -0.61   -0.12    0.02    0.16   -0.03    0.00    0.00      -0.57    1.55   -0.28
#  51   -0.94   -0.24    0.08    0.29   -0.05    0.00    0.00      -0.85    1.76   -0.28
#  52   -1.61   -0.17    0.03    0.26   -0.04    0.00    0.00      -1.54    1.70   -0.28
#  53   -4.80   -0.45    0.34    1.52   -0.07    0.00    0.00      -3.45    6.46   -0.28
#  54   -3.53   -0.53    0.31    1.09   -0.06    0.00    0.00      -2.72    4.20   -0.22
#  55   -1.07   -0.06    0.00    0.26   -0.01    0.00    0.00      -0.89    4.15   -0.22
#  56   -1.44   -0.06    0.00    0.33   -0.02    0.00    0.00      -1.18    6.12   -0.28
#  57   -5.01   -0.48    0.20    2.52   -0.08    0.00    0.00      -2.85    8.47   -0.28
#  58   -2.31   -0.10    0.00    0.76   -0.03    0.00    0.00      -1.68    7.03   -0.28
#  59   -1.99   -0.11    0.00    0.52   -0.03    0.00    0.00      -1.59    5.66   -0.28
#  60   -1.47   -0.11    0.01    0.74   -0.02    0.00    0.00      -0.86    7.02   -0.22
#  61   -1.29   -0.18    0.01    0.29   -0.05    0.00    0.00      -1.22    1.77   -0.28
#  62   -2.10   -0.18    0.01    0.56   -0.05    0.00    0.00      -1.75    3.04   -0.28
#  63   -2.04   -0.26    0.02    0.43   -0.07    0.00    0.00      -1.92    1.77   -0.28
#  64   -2.36   -0.64    0.58   -0.03   -0.09    0.00    0.00      -2.53   -0.11   -0.28
#  65   -4.50   -0.68    0.17    0.81   -0.15    0.00    0.00      -4.34    1.54   -0.28
#  66   -4.49   -0.85    1.28    1.34   -0.13    0.00    0.00      -2.85    2.90   -0.28
#  67   -7.79   -1.55    3.05    3.20   -0.13    0.00    0.00      -3.21    7.08   -0.28
#  68   -4.11   -0.25    0.02    1.47   -0.07    0.00    0.00      -2.95    5.68   -0.28

@<TRIPOS>MOLECULE
          T526936        42
   68    70     0     0     0



@<TRIPOS>ATOM
      1 C1         -1.2331    -8.8754    84.2781 C.3        1          -0.1568
      2 C2          0.2330    -8.4631    84.1317 C.3        1          -0.1218
      3 C3          0.8906    -8.4188    85.5124 C.3        1          -0.0856
      4 C4          2.3348    -8.0127    85.3682 C.ar       1          -0.0738
      5 C5          2.6813    -6.6737    85.4145 C.ar       1          -0.0966
      6 C6          4.0006    -6.2942    85.2832 C.ar       1          -0.0978
      7 C7          4.9890    -7.2663    85.1034 C.ar       1           0.0742
      8 C8          4.6313    -8.6168    85.0583 C.ar       1          -0.1670
      9 C9          3.3084    -8.9811    85.1958 C.ar       1          -0.0977
     10 N1          6.2977    -6.8982    84.9722 N.2        1          -0.4999
     11 C10         7.0673    -6.7929    86.0460 C.2        1           0.5656
     12 N2          6.5808    -7.1815    87.2715 N.pl3      1          -0.6409
     13 C11         7.3756    -7.0730    88.3789 C.2        1           0.5438
     14 C12         8.6584    -6.5709    88.2343 C.2        1          -0.3397
     15 C13         9.1007    -6.1927    86.9727 C.2        1           0.3382
     16 C14        10.4941    -5.6447    86.8002 C.3        1          -0.1558
     17 N3          8.3096    -6.3153    85.9242 N.pl3      1          -0.5451
     18 H1          8.6341    -6.0503    85.0493 H          1           0.4621
     19 N4          6.9107    -7.4542    89.6113 N.pl3      1          -0.5565
     20 C15         7.0992    -8.8324    90.0710 C.3        1           0.0957
     21 C16         7.9226    -8.8317    91.3606 C.3        1          -0.1832
     22 C17         6.2255    -6.4834    90.4681 C.3        1           0.0891
     23 C18         4.8055    -6.9732    90.7597 C.3        1          -0.1787
     24 C19         4.0899    -5.9594    91.6545 C.3        1          -0.0096
     25 N5          4.8267    -5.8146    92.9170 N.4        1          -0.3818
     26 H2          5.8180    -5.8173    92.7289 H          1           0.4247
     27 C20         4.4958    -6.9347    93.8061 C.3        1          -0.0124
     28 C21         5.3216    -6.8326    95.0903 C.3        1          -0.1459
     29 C22         5.0020    -5.5097    95.7925 C.3        1          -0.1407
     30 C23         5.2805    -4.3519    94.8298 C.3        1          -0.1474
     31 C24         4.4549    -4.5466    93.5562 C.3        1          -0.0074
     32 H3         -1.7017    -8.9069    83.2946 H          1           0.0565
     33 H4         -1.2889    -9.8616    84.7391 H          1           0.0559
     34 H5         -1.7533    -8.1513    84.9053 H          1           0.0631
     35 H6          0.7532    -9.1873    83.5046 H          1           0.0666
     36 H7          0.2888    -7.4769    83.6709 H          1           0.0654
     37 H8          0.3706    -7.6946    86.1396 H          1           0.0746
     38 H9          0.8349    -9.4049    85.9734 H          1           0.0757
     39 H10         1.9165    -5.9238    85.5533 H          1           0.1369
     40 H11         4.2694    -5.2488    85.3188 H          1           0.1362
     41 H12         5.3894    -9.3733    84.9194 H          1           0.1219
     42 H13         3.0309   -10.0244    85.1649 H          1           0.1335
     43 H14         5.6789    -7.5302    87.3503 H          1           0.4399
     44 H15         9.3071    -6.4743    89.0923 H          1           0.1965
     45 H16        10.6626    -5.4044    85.7505 H          1           0.1308
     46 H17        10.6068    -4.7429    87.4022 H          1           0.1104
     47 H18        11.2203    -6.3904    87.1234 H          1           0.1261
     48 H19         6.1274    -9.2882    90.2607 H          1           0.1094
     49 H20         7.6246    -9.4024    89.3048 H          1           0.1083
     50 H21         8.0628    -9.8571    91.7026 H          1           0.0698
     51 H22         8.8943    -8.3758    91.1711 H          1           0.0686
     52 H23         7.3971    -8.2617    92.1269 H          1           0.0950
     53 H24         6.7722    -6.3759    91.4049 H          1           0.1295
     54 H25         6.1802    -5.5196    89.9611 H          1           0.0932
     55 H26         4.2588    -7.0808    89.8229 H          1           0.0897
     56 H27         4.8508    -7.9371    91.2666 H          1           0.1092
     57 H28         4.0449    -4.9954    91.1475 H          1           0.1426
     58 H29         3.0784    -6.3084    91.8621 H          1           0.1342
     59 H30         3.4348    -6.9005    94.0533 H          1           0.1302
     60 H31         4.7209    -7.8754    93.3038 H          1           0.1224
     61 H32         5.0732    -7.6641    95.7498 H          1           0.1137
     62 H33         6.3829    -6.8670    94.8442 H          1           0.0891
     63 H34         3.9519    -5.4965    96.0844 H          1           0.0834
     64 H35         5.6290    -5.4064    96.6781 H          1           0.0986
     65 H36         5.0027    -3.4101    95.3032 H          1           0.1173
     66 H37         6.3410    -4.3347    94.5783 H          1           0.0898
     67 H38         4.6498    -3.7231    92.8691 H          1           0.1337
     68 H39         3.3948    -4.5648    93.8088 H          1           0.1309
@<TRIPOS>BOND
     1    1    2 1
     2    1   32 1
     3    1   33 1
     4    1   34 1
     5    2    3 1
     6    2   35 1
     7    2   36 1
     8    3    4 1
     9    3   37 1
    10    3   38 1
    11    4    9 ar
    12    4    5 ar
    13    5    6 ar
    14    5   39 1
    15    6    7 ar
    16    6   40 1
    17    7    8 ar
    18    7   10 1
    19    8    9 ar
    20    8   41 1
    21    9   42 1
    22   10   11 2
    23   11   17 1
    24   11   12 1
    25   12   13 1
    26   12   43 1
    27   13   14 2
    28   13   19 1
    29   14   15 1
    30   14   44 1
    31   15   16 1
    32   15   17 2
    33   16   45 1
    34   16   46 1
    35   16   47 1
    36   17   18 1
    37   19   20 1
    38   19   22 1
    39   20   21 1
    40   20   48 1
    41   20   49 1
    42   21   50 1
    43   21   51 1
    44   21   52 1
    45   22   23 1
    46   22   53 1
    47   22   54 1
    48   23   24 1
    49   23   55 1
    50   23   56 1
    51   24   25 1
    52   24   57 1
    53   24   58 1
    54   25   26 1
    55   25   31 1
    56   25   27 1
    57   27   28 1
    58   27   59 1
    59   27   60 1
    60   28   29 1
    61   28   61 1
    62   28   62 1
    63   29   30 1
    64   29   63 1
    65   29   64 1
    66   30   31 1
    67   30   65 1
    68   30   66 1
    69   31   67 1
    70   31   68 1
##########                 Name:              T541801
##########          Protonation:                   11
##########               SMILES:   CC1(NC(=[NH2+])NC(=[NH2+])N1OCCCOc2ccc(cc2)OC)C
##########            Long Name:   3-(4-methoxyphenoxy)propoxy]-6,6-dimethyl-1,3,5-triazinan-2-ylidene]ammonium
##########          FlexRecCode: 1
##########               Number:                  204
##########   Ligand Source File: /raidb/db2/rgc/tcams/tcams-0002146.db2.gz
##########           GlobalRank: 458
##########                 Rank:                    1
##########               Setnum:                  168
##########             Matchnum:                  213
##########                Cloud:                    1
##########        Electrostatic:           -64.108017
##########        Van der Waals:           -18.588284
##########  Ligand Polar Desolv:            20.337109
########## Ligand Apolar Desolv:            -1.385835
##########      Internal Energy:             0.000000
##########      Receptor Energy: 0.0
########## Receptor Desolvation:             0.000000
########## Receptor Hydrophobic:             0.000000
##########         Total Energy: -63.75
##########        Ligand Charge:             2.000000
##########            Arbitrary:    +999.9990
##########     heavy atom count:   23
##########           pose count:    1
##########        Ligand Energy:             0.000000
# num electro vdwattr vdwrepu polsolv apolsol rdesolv rhydroe totalscore fullpol fullapo
#   1   -0.21   -1.33    0.19    0.09    0.02    0.00    0.00      -1.24    0.16    0.03
#   2    2.35   -1.29    0.13   -1.64    0.51    0.00    0.00       0.06   -3.01    0.93
#   3   -0.70   -1.48    0.22    0.05   -0.13    0.00    0.00      -2.04    0.12   -0.31
#   4    1.73   -1.52    0.25   -0.84   -0.17    0.00    0.00      -0.55   -2.03   -0.42
#   5    1.17   -1.25    0.11   -0.74   -0.17    0.00    0.00      -0.88   -1.95   -0.46
#   6   -0.60   -1.23    0.22    0.50   -0.10    0.00    0.00      -1.20    1.57   -0.31
#   7    3.77   -0.72    0.07   -1.78    0.25    0.00    0.00       1.58   -6.42    0.90
#   8   -1.17   -0.62    0.03    0.22   -0.03    0.00    0.00      -1.57    0.64   -0.09
#   9    3.00   -0.58    0.03   -1.07   -0.08    0.00    0.00       1.29   -3.32   -0.25
#  10   -0.10   -0.41    0.01    0.16   -0.03    0.00    0.00      -0.37    0.72   -0.12
#  11    0.62   -0.55    0.06   -0.75    0.08    0.00    0.00      -0.55   -4.02    0.43
#  12    7.78   -0.46    0.02   -3.79    0.16    0.00    0.00       3.71  -21.15    0.87
#  13  -24.12   -1.34    0.63    8.52   -1.04    0.00    0.00     -17.35   35.75   -4.36
#  14   24.73   -2.20    2.43   -8.44    0.24    0.00    0.00      16.76  -30.71    0.89
#  15  -11.70   -0.01    0.00    3.59    0.08    0.00    0.00      -8.04   21.51    0.45
#  16  -25.31   -0.15    0.07    7.55    0.19    0.00    0.00     -17.65   24.12    0.60
#  17   28.16   -3.67    4.21  -10.18    0.38    0.00    0.00      18.90  -31.19    1.15
#  18  -16.15   -1.32    0.27   10.73   -1.30    0.00    0.00      -7.76   37.40   -4.52
#  19    8.92   -2.14    0.97  -10.18    0.29    0.00    0.00      -2.15  -31.41    0.89
#  20  -15.46   -0.08    0.01    8.71    0.21    0.00    0.00      -6.61   24.45    0.60
#  21   -1.60   -0.02    0.00    4.92    0.13    0.00    0.00       3.43   23.57    0.60
#  22    6.88   -0.50    0.03   -6.30    0.30    0.00    0.00       0.41  -32.19    1.53
#  23   -3.52   -0.20    0.00    2.15   -0.05    0.00    0.00      -1.61   17.86   -0.38
#  24    1.11   -0.14    0.00   -0.72   -0.02    0.00    0.00       0.23   -8.11   -0.18
#  25    0.51   -0.21    0.01   -0.82   -0.02    0.00    0.00      -0.53   -6.74   -0.16
#  26    0.18   -2.30    1.64   -0.81   -0.14    0.00    0.00      -1.43   -2.50   -0.42
#  27    0.31   -1.80    0.41   -0.68   -0.17    0.00    0.00      -1.93   -1.84   -0.46
#  28   -0.46   -0.64    0.24    0.43   -0.15    0.00    0.00      -0.58    0.77   -0.27
#  29   -0.39   -0.63    0.39    0.38   -0.14    0.00    0.00      -0.38    0.74   -0.27
#  30   -1.30   -0.34    0.06    0.51   -0.11    0.00    0.00      -1.18    1.33   -0.28
#  31   -1.98   -0.31    0.04    0.47   -0.07    0.00    0.00      -1.85    1.50   -0.22
#  32   -2.12   -0.24    0.02    0.43   -0.07    0.00    0.00      -1.98    1.75   -0.28
#  33   -0.87   -0.23    0.02    0.86   -0.07    0.00    0.00      -0.30    3.19   -0.27
#  34   -1.49   -0.24    0.03    0.52   -0.06    0.00    0.00      -1.23    2.55   -0.27
#  35   -2.89   -0.26    0.02    0.35   -0.07    0.00    0.00      -2.86    1.43   -0.28
#  36   -3.44   -0.24    0.05    0.40   -0.05    0.00    0.00      -3.28    2.07   -0.28
#  37   -1.06   -0.14    0.01    0.80   -0.03    0.00    0.00      -0.43    5.85   -0.22
#  38   -1.98   -0.11    0.00    0.45   -0.03    0.00    0.00      -1.67    4.47   -0.26
#  39  -32.51   -0.32    0.16   10.93    0.25    0.00    0.00     -21.49   25.99    0.59
#  40   -1.87   -0.01    0.00    2.12    0.06    0.00    0.00       0.30   21.26    0.58
#  41   -0.30   -0.02    0.00    0.10   -0.01    0.00    0.00      -0.23    3.50   -0.27
#  42   -1.31   -0.04    0.00    0.16   -0.01    0.00    0.00      -1.20    4.15   -0.28
#  43   -0.16   -0.07    0.01    0.40   -0.02    0.00    0.00       0.15    5.10   -0.26
#  44   -0.13   -0.04    0.00    0.08   -0.01    0.00    0.00      -0.10    2.15   -0.28
#  45   -0.06   -0.13    0.02    0.47   -0.03    0.00    0.00       0.27    3.88   -0.28
#  46   -0.45   -0.06    0.00    0.14   -0.01    0.00    0.00      -0.39    2.57   -0.26
#  47    0.45   -0.81    1.05    1.26   -0.06    0.00    0.00       1.89    5.02   -0.22
#  48   -0.37   -0.42    0.11    0.64   -0.09    0.00    0.00      -0.12    2.07   -0.28

@<TRIPOS>MOLECULE
          T541801        11
   48    49     0     0     0



@<TRIPOS>ATOM
      1 C1          8.3038   -13.0778    96.9954 C.3        1           0.0238
      2 O1          8.3693   -11.7588    97.5414 O.3        1          -0.3149
      3 C2          7.6518   -10.7924    96.9087 C.ar       1           0.1066
      4 C3          7.6750    -9.4891    97.3826 C.ar       1          -0.1664
      5 C4          6.9461    -8.5074    96.7400 C.ar       1          -0.1010
      6 C5          6.1913    -8.8249    95.6205 C.ar       1           0.0784
      7 O2          5.4734    -7.8586    94.9881 O.3        1          -0.3110
      8 C6          4.9878    -6.7809    95.7912 C.3        1           0.0652
      9 C7          4.2095    -5.8001    94.9118 C.3        1          -0.1180
     10 C8          3.0287    -6.5242    94.2618 C.3        1           0.0059
     11 O3          3.5143    -7.6017    93.4588 O.3        1          -0.0647
     12 N1          3.9945    -7.2022    92.1880 N.pl3      1          -0.4875
     13 C9          5.0468    -6.3062    92.0605 C.cat      1           0.7652
     14 N2          6.1199    -6.3967    92.7933 N.pl3      1          -0.6716
     15 H1          6.1999    -7.1053    93.4508 H          1           0.4602
     16 H2          6.8391    -5.7556    92.6812 H          1           0.4604
     17 N3          4.8910    -5.3047    91.1039 N.pl3      1          -0.6704
     18 C10         4.2781    -5.6876    89.9121 C.cat      1           0.7708
     19 N4          4.6758    -5.2346    88.7576 N.pl3      1          -0.6662
     20 H3          5.4184    -4.6124    88.7104 H          1           0.4606
     21 H4          4.2294    -5.5194    87.9449 H          1           0.4688
     22 N5          3.2204    -6.5793    90.0249 N.pl3      1          -0.7070
     23 C11         3.4021    -7.7245    90.9427 C.3        1           0.4033
     24 C12         4.3416    -8.7554    90.3138 C.3        1          -0.1920
     25 C13         2.0479    -8.3701    91.2430 C.3        1          -0.1745
     26 C14         6.1692   -10.1279    95.1458 C.ar       1          -0.1663
     27 C15         6.9011   -11.1088    95.7861 C.ar       1          -0.1153
     28 H5          8.9198   -13.7495    97.5934 H          1           0.0585
     29 H6          7.2707   -13.4251    97.0073 H          1           0.0588
     30 H7          8.6710   -13.0649    95.9692 H          1           0.1066
     31 H8          8.2627    -9.2419    98.2543 H          1           0.1413
     32 H9          6.9636    -7.4927    97.1095 H          1           0.1369
     33 H10         4.3307    -7.1734    96.5671 H          1           0.0657
     34 H11         5.8290    -6.2650    96.2542 H          1           0.0694
     35 H12         3.8390    -4.9781    95.5244 H          1           0.1037
     36 H13         4.8667    -5.4075    94.1358 H          1           0.0983
     37 H14         2.3715    -6.9166    95.0378 H          1           0.0704
     38 H15         2.4743    -5.8254    93.6354 H          1           0.0973
     39 H16         5.1908    -4.3953    91.2585 H          1           0.4812
     40 H17         2.4001    -6.4574    89.5220 H          1           0.4666
     41 H18         3.8984    -9.1376    89.3941 H          1           0.1131
     42 H19         5.2985    -8.2847    90.0877 H          1           0.1252
     43 H20         4.4974    -9.5784    91.0114 H          1           0.0696
     44 H21         1.6156    -8.7539    90.3190 H          1           0.1016
     45 H22         2.1845    -9.1897    91.9483 H          1           0.1160
     46 H23         1.3788    -7.6262    91.6755 H          1           0.1110
     47 H24         5.5817   -10.3751    94.2739 H          1           0.1290
     48 H25         6.8866   -12.1228    95.4145 H          1           0.1371
@<TRIPOS>BOND
     1    1    2 1
     2    1   28 1
     3    1   29 1
     4    1   30 1
     5    2    3 1
     6    3   27 ar
     7    3    4 ar
     8    4    5 ar
     9    4   31 1
    10    5    6 ar
    11    5   32 1
    12    6    7 1
    13    6   26 ar
    14    7    8 1
    15    8    9 1
    16    8   33 1
    17    8   34 1
    18    9   10 1
    19    9   35 1
    20    9   36 1
    21   10   11 1
    22   10   37 1
    23   10   38 1
    24   11   12 1
    25   12   23 1
    26   12   13 1
    27   13   14 2
    28   13   17 1
    29   14   15 1
    30   14   16 1
    31   17   18 1
    32   17   39 1
    33   18   19 2
    34   18   22 1
    35   19   20 1
    36   19   21 1
    37   22   23 1
    38   22   40 1
    39   23   24 1
    40   23   25 1
    41   24   41 1
    42   24   42 1
    43   24   43 1
    44   25   44 1
    45   25   45 1
    46   25   46 1
    47   26   27 ar
    48   26   47 1
    49   27   48 1
##########                 Name:              T538350
##########          Protonation:                   82
##########               SMILES:   COc1ccc(cc1)Nc2nc(cc(n2)c3ccncc3)N[C@H]4CC[NH+](CC4)Cc5ccccc5
##########            Long Name:   peridin-1-ium-4-yl)-N2-(4-methoxyphenyl)-6-(4-pyridyl)pyrimidine-2,4-diamine
##########          FlexRecCode: 1
##########               Number:                  285
##########   Ligand Source File: /raidb/db2/rgc/tcams/tcams-0001780.db2.gz
##########           GlobalRank: 459
##########                 Rank:                    1
##########               Setnum:                  138
##########             Matchnum:                 1334
##########                Cloud:                    1
##########        Electrostatic:           -28.186203
##########        Van der Waals:           -36.450695
##########  Ligand Polar Desolv:             5.533720
########## Ligand Apolar Desolv:            -4.638810
##########      Internal Energy:             0.000000
##########      Receptor Energy: 0.0
########## Receptor Desolvation:             0.000000
########## Receptor Hydrophobic:             0.000000
##########         Total Energy: -63.74
##########        Ligand Charge:             1.000000
##########            Arbitrary:    +999.9990
##########     heavy atom count:   35
##########           pose count:    1
##########        Ligand Energy:             0.000000
# num electro vdwattr vdwrepu polsolv apolsol rdesolv rhydroe totalscore fullpol fullapo
#   1   -0.63   -1.19    0.21    0.03    0.01    0.00    0.00      -1.57    0.06    0.03
#   2    7.48   -2.29    0.86   -0.27    0.41    0.00    0.00       6.19   -0.61    0.93
#   3   -3.06   -2.07    0.73    0.03   -0.13    0.00    0.00      -4.50    0.06   -0.31
#   4    5.56   -2.65    1.14   -0.40   -0.20    0.00    0.00       3.45   -0.85   -0.42
#   5    2.82   -1.98    0.43   -0.29   -0.20    0.00    0.00       0.78   -0.66   -0.46
#   6   -2.51   -1.49    0.18    0.29   -0.30    0.00    0.00      -3.83    0.66   -0.67
#   7    9.79   -1.87    0.28   -2.06    0.48    0.00    0.00       6.62   -4.60    1.07
#   8   -7.76   -1.29    0.13    1.60   -1.77    0.00    0.00      -9.09    4.20   -4.64
#   9    5.78   -1.77    0.31   -1.76    0.54    0.00    0.00       3.10   -3.98    1.22
#  10   -2.95   -1.30    0.13    0.75   -0.28    0.00    0.00      -3.66    1.98   -0.74
#  11    3.95   -1.41    0.37   -1.35   -0.12    0.00    0.00       1.44   -4.31   -0.38
#  12   -7.63   -0.97    0.11    2.17   -0.60    0.00    0.00      -6.92    7.52   -2.09
#  13   15.01   -1.04    0.17   -4.03    0.34    0.00    0.00      10.46  -15.35    1.29
#  14   -1.81   -0.34    0.02    0.67   -0.05    0.00    0.00      -1.51    3.34   -0.24
#  15    2.65   -0.27    0.01   -0.78   -0.04    0.00    0.00       1.58   -4.78   -0.23
#  16    0.17   -0.68    0.17    0.06   -0.09    0.00    0.00      -0.37    0.25   -0.38
#  17    7.69   -0.52    0.05   -2.48    0.06    0.00    0.00       4.80  -11.91    0.27
#  18   -4.81    0.00    0.00    0.85    0.03    0.00    0.00      -3.94   16.31    0.54
#  19   -1.17   -1.22    0.40    0.63   -0.12    0.00    0.00      -1.48    1.96   -0.36
#  20    1.38   -1.86    1.69   -0.80   -0.09    0.00    0.00       0.31   -2.89   -0.33
#  21    0.19   -1.33    0.57   -0.53   -0.12    0.00    0.00      -1.22   -2.02   -0.45
#  22    0.15   -0.98    0.23   -0.71   -0.12    0.00    0.00      -1.43   -2.74   -0.47
#  23    0.11   -1.01    0.26   -0.61   -0.13    0.00    0.00      -1.37   -2.24   -0.47
#  24    0.57   -1.28    0.69   -0.72   -0.12    0.00    0.00      -0.86   -2.72   -0.47
#  25    0.80   -1.88    1.98   -0.52   -0.09    0.00    0.00       0.30   -2.08   -0.36
#  26    0.28   -0.33    0.02   -0.07   -0.06    0.00    0.00      -0.17   -0.38   -0.34
#  27    1.17   -0.42    0.06   -0.69   -0.04    0.00    0.00       0.09   -3.97   -0.23
#  28   10.07   -0.83    0.04   -2.13    0.62    0.00    0.00       7.78   -7.09    2.07
#  29    0.20   -1.65    0.38   -0.09   -0.18    0.00    0.00      -1.34   -0.21   -0.41
#  30    1.08   -1.55    0.28   -0.62   -0.21    0.00    0.00      -1.02   -1.33   -0.44
#  31   -0.75   -1.90    0.32    0.37   -0.56    0.00    0.00      -2.53    0.64   -0.98
#  32    4.18   -2.94    1.96   -1.26    1.19    0.00    0.00       3.13   -2.18    2.05
#  33   -1.57   -3.26    2.32    0.07   -0.56    0.00    0.00      -2.99    0.13   -0.98
#  34    1.97   -2.15    0.58   -0.42   -0.25    0.00    0.00      -0.26   -0.76   -0.45
#  35    1.66   -1.47    0.17   -0.13   -0.19    0.00    0.00       0.04   -0.28   -0.40
#  36    3.70   -1.58    0.31   -0.16   -0.19    0.00    0.00       2.08   -0.38   -0.46
#  37   -1.35   -0.32    0.03    0.15   -0.08    0.00    0.00      -1.57    0.46   -0.26
#  38   -2.53   -0.21    0.02    0.18   -0.06    0.00    0.00      -2.60    0.81   -0.28
#  39   -1.59   -0.55    0.18    0.21   -0.11    0.00    0.00      -1.87    0.50   -0.27
#  40   -4.74   -0.82    0.53    0.49   -0.11    0.00    0.00      -4.64    1.03   -0.22
#  41   -3.89   -0.47    0.14    0.48   -0.09    0.00    0.00      -3.83    1.43   -0.28
#  42   -6.13   -0.05    0.00    1.97    0.29    0.00    0.00      -3.92    4.13    0.60
#  43   -1.64   -0.56    0.57    0.93   -0.04    0.00    0.00      -0.74    4.22   -0.17
#  44  -12.11   -0.03    0.00    2.64    0.12    0.00    0.00      -9.38   10.22    0.48
#  45   -0.86   -0.10    0.01    0.26   -0.02    0.00    0.00      -0.72    2.47   -0.22
#  46   -1.97   -0.10    0.01    0.23   -0.03    0.00    0.00      -1.85    2.14   -0.27
#  47   -1.02   -0.04    0.00    0.18   -0.01    0.00    0.00      -0.89    4.91   -0.28
#  48   -5.59   -0.78    1.40    0.93   -0.07    0.00    0.00      -4.10    3.75   -0.27
#  49   -3.43   -0.17    0.02    0.97   -0.05    0.00    0.00      -2.65    6.03   -0.28
#  50   -5.48   -0.70    0.53    1.79   -0.09    0.00    0.00      -3.96    5.33   -0.28
#  51   -4.15   -0.53    0.22    2.12   -0.09    0.00    0.00      -2.43    6.22   -0.27
#  52   -0.30   -0.21    0.04    0.90   -0.05    0.00    0.00       0.37    4.71   -0.28
#  53   -0.15   -0.14    0.01    0.25   -0.04    0.00    0.00      -0.08    1.57   -0.28
#  54   -0.15   -0.19    0.02    0.18   -0.06    0.00    0.00      -0.19    0.86   -0.28
#  55   -1.49   -0.17    0.01    0.26   -0.05    0.00    0.00      -1.43    1.56   -0.28
#  56   -2.02   -0.23    0.05    0.82   -0.05    0.00    0.00      -1.43    4.48   -0.28
#  57   -3.40   -0.15    0.02    0.56   -0.03    0.00    0.00      -3.00    4.45   -0.22
#  58   -1.86   -0.07    0.00    0.26   -0.01    0.00    0.00      -1.68    4.09   -0.19
#  59   -0.31   -0.12    0.02    0.51   -0.03    0.00    0.00       0.07    4.53   -0.28
#  60   -0.09   -0.29    0.14    0.40   -0.05    0.00    0.00       0.11    2.34   -0.28
#  61   -0.71   -0.26    0.02    1.11   -0.06    0.00    0.00       0.10    4.06   -0.22
#  62   -1.08   -0.43    0.07    1.32   -0.15    0.00    0.00      -0.27    2.54   -0.28
#  63   -3.30   -1.30    2.44    0.36   -0.17    0.00    0.00      -1.97    0.60   -0.28
#  64   -2.98   -0.42    0.05    0.15   -0.13    0.00    0.00      -3.33    0.29   -0.26
#  65   -2.90   -0.39    0.07    0.18   -0.09    0.00    0.00      -3.13    0.43   -0.22
#  66   -4.78   -0.55    0.51    0.09   -0.09    0.00    0.00      -4.82    0.28   -0.28

@<TRIPOS>MOLECULE
          T538350        82
   66    70     0     0     0



@<TRIPOS>ATOM
      1 C1         -0.5136    -3.8552    94.1907 C.3        1           0.0255
      2 O1          0.8716    -3.5093    94.2487 O.3        1          -0.3157
      3 C2          1.6807    -4.3217    94.9796 C.ar       1           0.1196
      4 C3          3.0351    -4.0407    95.0825 C.ar       1          -0.1870
      5 C4          3.8575    -4.8651    95.8250 C.ar       1          -0.1016
      6 C5          3.3279    -5.9758    96.4688 C.ar       1           0.1178
      7 N1          4.1610    -6.8120    97.2223 N.pl3      1          -0.6298
      8 C6          5.2273    -7.4554    96.6164 C.ar       1           0.6104
      9 N2          6.0002    -8.2461    97.3443 N.ar       1          -0.5725
     10 C7          7.0349    -8.8822    96.7962 C.ar       1           0.2867
     11 C8          7.2968    -8.7054    95.4403 C.ar       1          -0.3295
     12 C9          6.4592    -7.8640    94.7075 C.ar       1           0.4765
     13 N3          6.6804    -7.6572    93.3553 N.pl3      1          -0.7180
     14 C10         6.0466    -8.5334    92.3670 C.3        1           0.1420
     15 C11         6.4434    -8.0866    90.9570 C.3        1          -0.1645
     16 C12         5.9159    -6.6718    90.7088 C.3        1          -0.0061
     17 N4          4.4534    -6.6622    90.8331 N.4        1          -0.3802
     18 H1          4.0577    -7.3296    90.1881 H          1           0.4229
     19 C13         3.9456    -5.3199    90.5196 C.3        1           0.0442
     20 C14         2.4835    -5.4062    90.1647 C.ar       1          -0.1620
     21 C15         2.1018    -5.6111    88.8520 C.ar       1          -0.0934
     22 C16         0.7606    -5.6902    88.5265 C.ar       1          -0.1122
     23 C17        -0.1987    -5.5650    89.5138 C.ar       1          -0.0834
     24 C18         0.1830    -5.3610    90.8266 C.ar       1          -0.1129
     25 C19         1.5242    -5.2862    91.1528 C.ar       1          -0.0984
     26 C20         4.0677    -7.0202    92.2034 C.3        1          -0.0157
     27 C21         4.5241    -8.4484    92.5091 C.3        1          -0.1501
     28 N5          5.4432    -7.2673    95.3230 N.ar       1          -0.6175
     29 C22         7.8966    -9.7666    97.6197 C.ar       1          -0.0189
     30 C23         8.0388   -11.1215    97.3094 C.ar       1          -0.1469
     31 C24         8.8506   -11.9084    98.1017 C.ar       1           0.0983
     32 N6          9.4861   -11.3970    99.1379 N.ar       1          -0.4699
     33 C25         9.3790   -10.1238    99.4649 C.ar       1           0.1012
     34 C26         8.5923    -9.2656    98.7232 C.ar       1          -0.1231
     35 C27         1.9720    -6.2564    96.3654 C.ar       1          -0.0724
     36 C28         1.1502    -5.4281    95.6267 C.ar       1          -0.1339
     37 H2         -1.0444    -3.1272    93.5771 H          1           0.0567
     38 H3         -0.6223    -4.8474    93.7529 H          1           0.1030
     39 H4         -0.9307    -3.8547    95.1977 H          1           0.0566
     40 H5          3.4468    -3.1770    94.5816 H          1           0.1341
     41 H6          4.9120    -4.6463    95.9048 H          1           0.1280
     42 H7          3.9912    -6.9407    98.1687 H          1           0.4236
     43 H8          8.1281    -9.2070    94.9673 H          1           0.1427
     44 H9          7.2549    -6.9324    93.0631 H          1           0.4037
     45 H10         6.3710    -9.5612    92.5298 H          1           0.1156
     46 H11         7.5297    -8.0912    90.8661 H          1           0.1181
     47 H12         6.0132    -8.7692    90.2242 H          1           0.1034
     48 H13         6.3470    -5.9899    91.4420 H          1           0.1283
     49 H14         6.1970    -6.3505    89.7060 H          1           0.1341
     50 H15         4.0713    -4.6721    91.3870 H          1           0.1346
     51 H16         4.5006    -4.9095    89.6759 H          1           0.1380
     52 H17         2.8514    -5.7089    88.0806 H          1           0.1314
     53 H18         0.4624    -5.8496    87.5008 H          1           0.1366
     54 H19        -1.2466    -5.6261    89.2593 H          1           0.1363
     55 H20        -0.5666    -5.2629    91.5980 H          1           0.1363
     56 H21         1.8226    -5.1306    92.1790 H          1           0.1303
     57 H22         4.5381    -6.3310    92.9046 H          1           0.1248
     58 H23         2.9842    -6.9563    92.3039 H          1           0.1381
     59 H24         4.0541    -9.1387    91.8086 H          1           0.1088
     60 H25         4.2383    -8.7117    93.5275 H          1           0.1214
     61 H26         7.5210   -11.5470    96.4626 H          1           0.1359
     62 H27         8.9665   -12.9569    97.8699 H          1           0.1617
     63 H28         9.9173    -9.7468   100.3219 H          1           0.1642
     64 H29         8.5125    -8.2232    98.9941 H          1           0.1500
     65 H30         1.5596    -7.1203    96.8654 H          1           0.1390
     66 H31         0.0947    -5.6438    95.5499 H          1           0.1354
@<TRIPOS>BOND
     1    1    2 1
     2    1   37 1
     3    1   38 1
     4    1   39 1
     5    2    3 1
     6    3   36 ar
     7    3    4 ar
     8    4    5 ar
     9    4   40 1
    10    5    6 ar
    11    5   41 1
    12    6    7 1
    13    6   35 ar
    14    7    8 1
    15    7   42 1
    16    8   28 ar
    17    8    9 ar
    18    9   10 ar
    19   10   11 ar
    20   10   29 1
    21   11   12 ar
    22   11   43 1
    23   12   13 1
    24   12   28 ar
    25   13   14 1
    26   13   44 1
    27   14   27 1
    28   14   15 1
    29   14   45 1
    30   15   16 1
    31   15   46 1
    32   15   47 1
    33   16   17 1
    34   16   48 1
    35   16   49 1
    36   17   18 1
    37   17   19 1
    38   17   26 1
    39   19   20 1
    40   19   50 1
    41   19   51 1
    42   20   25 ar
    43   20   21 ar
    44   21   22 ar
    45   21   52 1
    46   22   23 ar
    47   22   53 1
    48   23   24 ar
    49   23   54 1
    50   24   25 ar
    51   24   55 1
    52   25   56 1
    53   26   27 1
    54   26   57 1
    55   26   58 1
    56   27   59 1
    57   27   60 1
    58   29   34 ar
    59   29   30 ar
    60   30   31 ar
    61   30   61 1
    62   31   32 ar
    63   31   62 1
    64   32   33 ar
    65   33   34 ar
    66   33   63 1
    67   34   64 1
    68   35   36 ar
    69   35   65 1
    70   36   66 1
##########                 Name:              T542311
##########          Protonation:                   98
##########               SMILES:   c1ccc(cc1)[C@H](COc2cccc3n2nc(c3c4ccncc4)c5cccc(c5)NC(=O)Nc6ccccc6)[NH3+]
##########            Long Name:   oylamino)phenyl]-3-(4-pyridyl)pyrazolo[1,5-a]pyridin-7-yl]oxy-ethyl]ammonium
##########          FlexRecCode: 1
##########               Number:                  233
##########   Ligand Source File: /raidb/db2/rgc/tcams/tcams-0002232.db2.gz
##########           GlobalRank: 460
##########                 Rank:                    1
##########               Setnum:                  313
##########             Matchnum:                 2055
##########                Cloud:                    1
##########        Electrostatic:           -53.553841
##########        Van der Waals:           -21.501425
##########  Ligand Polar Desolv:            13.060309
########## Ligand Apolar Desolv:            -1.736868
##########      Internal Energy:             0.000000
##########      Receptor Energy: 0.0
########## Receptor Desolvation:             0.000000
########## Receptor Hydrophobic:             0.000000
##########         Total Energy: -63.73
##########        Ligand Charge:             1.000000
##########            Arbitrary:    +999.9990
##########     heavy atom count:   41
##########           pose count:    1
##########        Ligand Energy:             0.000000
# num electro vdwattr vdwrepu polsolv apolsol rdesolv rhydroe totalscore fullpol fullapo
#   1   32.11   -4.49    8.28   -8.78    0.30    0.00    0.00      27.42  -21.72    0.73
#   2  -35.45   -0.48    0.35    8.61    0.29    0.00    0.00     -26.68   17.53    0.59
#   3  -17.65   -0.07    0.00    6.19    0.22    0.00    0.00     -11.31   15.82    0.56
#   4  -18.47   -0.04    0.00    4.45    0.12    0.00    0.00     -13.94   17.42    0.48
#   5   -3.61   -1.18    0.25    1.78   -0.12    0.00    0.00      -2.89    4.28   -0.30
#   6   -0.99   -0.52    0.02    0.06   -0.03    0.00    0.00      -1.46    0.20   -0.09
#   7    6.69   -0.81    0.06   -1.99    0.25    0.00    0.00       4.20   -6.56    0.83
#   8   -4.79   -0.71    0.07    1.17   -0.15    0.00    0.00      -4.41    5.30   -0.66
#   9    2.97   -0.79    0.07   -1.10   -0.11    0.00    0.00       1.05   -4.17   -0.42
#  10    0.20   -0.68    0.06   -0.03   -0.11    0.00    0.00      -0.57   -0.14   -0.47
#  11    0.23   -0.34    0.01   -0.30   -0.07    0.00    0.00      -0.47   -2.22   -0.48
#  12   -0.56   -0.30    0.01    0.13   -0.09    0.00    0.00      -0.82    1.12   -0.74
#  13    0.86   -0.22    0.00   -0.12   -0.03    0.00    0.00       0.49   -1.42   -0.40
#  14   -1.90   -0.31    0.01    0.06   -0.09    0.00    0.00      -2.23    0.46   -0.75
#  15    4.66   -0.46    0.02   -0.33    0.22    0.00    0.00       4.11   -1.78    1.22
#  16    3.00   -0.46    0.02   -0.44    0.20    0.00    0.00       2.32   -2.56    1.18
#  17    0.16   -0.28    0.01   -0.01   -0.04    0.00    0.00      -0.17   -0.09   -0.40
#  18    0.50   -0.29    0.02   -0.06   -0.04    0.00    0.00       0.13   -0.54   -0.41
#  19    0.57   -0.22    0.01   -0.06   -0.05    0.00    0.00       0.24   -0.65   -0.47
#  20    1.19   -0.28    0.01   -0.10   -0.05    0.00    0.00       0.78   -0.90   -0.46
#  21   -2.65   -0.44    0.02    0.13   -0.12    0.00    0.00      -3.05    0.77   -0.68
#  22   13.75   -0.76    0.07   -1.11    0.39    0.00    0.00      12.34   -4.87    1.70
#  23   -9.18   -0.44    0.02    0.59   -0.33    0.00    0.00      -9.35    3.56   -2.02
#  24    3.88   -0.19    0.00   -0.09    0.03    0.00    0.00       3.62   -1.08    0.29
#  25    9.71   -0.64    0.03   -1.24    0.43    0.00    0.00       8.29   -4.92    1.70
#  26   -0.83   -0.53    0.02    0.16   -0.14    0.00    0.00      -1.31    0.78   -0.68
#  27    0.90   -0.85    0.10   -0.33   -0.13    0.00    0.00      -0.31   -1.20   -0.46
#  28    0.14   -0.67    0.06   -0.20   -0.10    0.00    0.00      -0.77   -0.96   -0.47
#  29    0.20   -0.49    0.06   -0.20   -0.07    0.00    0.00      -0.50   -1.27   -0.47
#  30    0.18   -0.39    0.03   -0.12   -0.07    0.00    0.00      -0.37   -0.84   -0.47
#  31    0.26   -0.36    0.01   -0.13   -0.06    0.00    0.00      -0.28   -0.86   -0.40
#  32    1.66   -0.51    0.04   -0.07   -0.07    0.00    0.00       1.06   -0.38   -0.39
#  33   -0.05   -0.13    0.00    0.02   -0.01    0.00    0.00      -0.17    0.32   -0.25
#  34    0.24   -0.11    0.00   -0.05   -0.02    0.00    0.00       0.05   -0.94   -0.45
#  35   -0.12   -0.08    0.00    0.02   -0.04    0.00    0.00      -0.22    0.39   -0.97
#  36    0.40   -0.05    0.00   -0.05    0.07    0.00    0.00       0.37   -1.40    2.05
#  37   -0.08   -0.07    0.00    0.01   -0.04    0.00    0.00      -0.18    0.27   -0.97
#  38    0.12   -0.13    0.00   -0.05   -0.03    0.00    0.00      -0.08   -0.70   -0.45
#  39    5.74   -1.79    0.63   -1.08   -0.15    0.00    0.00       3.36   -2.49   -0.34
#  40    2.96   -0.91    0.07   -0.67   -0.13    0.00    0.00       1.31   -2.20   -0.44
#  41    2.21   -1.16    0.12   -1.04   -0.17    0.00    0.00      -0.04   -2.83   -0.47
#  42    2.07   -2.40    0.81   -1.10   -0.22    0.00    0.00      -0.84   -2.31   -0.47
#  43    3.37   -3.51    1.98   -1.49   -0.27    0.00    0.00       0.08   -2.65   -0.47
#  44    3.23   -3.37    1.59   -1.15   -0.25    0.00    0.00       0.05   -2.04   -0.45
#  45   -6.02   -0.52    0.11    2.38   -0.13    0.00    0.00      -4.17    5.27   -0.28
#  46   -1.84   -0.10    0.00    0.45   -0.02    0.00    0.00      -1.51    5.10   -0.26
#  47   -2.83   -0.16    0.00    0.47   -0.04    0.00    0.00      -2.55    3.15   -0.27
#  48   -2.95   -0.18    0.01    1.03   -0.04    0.00    0.00      -2.12    6.01   -0.21
#  49   -0.97   -0.21    0.04    0.82   -0.06    0.00    0.00      -0.39    3.72   -0.28
#  50   -0.23   -0.04    0.00    0.07   -0.01    0.00    0.00      -0.22    1.50   -0.28
#  51   -0.01   -0.11    0.03    0.05   -0.02    0.00    0.00      -0.07    0.51   -0.22
#  52   -0.55   -0.04    0.00    0.05   -0.01    0.00    0.00      -0.55    1.48   -0.28
#  53   -0.99   -0.05    0.00    0.10   -0.01    0.00    0.00      -0.96    1.87   -0.28
#  54  -11.81   -0.03    0.00    1.27    0.15    0.00    0.00     -10.42    4.98    0.59
#  55   -8.47   -0.02    0.00    1.13    0.14    0.00    0.00      -7.22    4.79    0.59
#  56   -1.57   -0.27    0.04    0.43   -0.08    0.00    0.00      -1.45    1.48   -0.28
#  57   -0.16   -0.13    0.01    0.23   -0.04    0.00    0.00      -0.10    1.61   -0.28
#  58   -0.14   -0.07    0.00    0.14   -0.02    0.00    0.00      -0.09    1.78   -0.28
#  59   -0.20   -0.06    0.00    0.09   -0.02    0.00    0.00      -0.18    1.71   -0.28
#  60   -0.30   -0.05    0.00    0.02   -0.01    0.00    0.00      -0.35    0.30   -0.22
#  61   -4.10   -0.22    0.04   -0.01   -0.04    0.00    0.00      -4.32   -0.05   -0.22
#  62   -0.36   -0.03    0.00    0.05   -0.01    0.00    0.00      -0.35    1.36   -0.28
#  63   -0.21   -0.02    0.00    0.04   -0.01    0.00    0.00      -0.20    1.37   -0.28
#  64   -0.10   -0.01    0.00    0.02   -0.01    0.00    0.00      -0.10    0.94   -0.28
#  65   -0.10   -0.04    0.00    0.03   -0.01    0.00    0.00      -0.13    0.55   -0.28
#  66   -2.14   -0.12    0.00    0.73   -0.02    0.00    0.00      -1.55    6.85   -0.23
#  67   -2.01   -0.18    0.01    0.39   -0.05    0.00    0.00      -1.84    2.36   -0.28
#  68   -3.06   -0.78    0.60    0.45   -0.12    0.00    0.00      -2.91    1.04   -0.28
#  69   -4.33   -0.94    0.49    0.84   -0.19    0.00    0.00      -4.13    1.26   -0.28
#  70   -5.94   -1.00    0.48    1.93   -0.17    0.00    0.00      -4.71    3.25   -0.28

@<TRIPOS>MOLECULE
          T542311        98
   70    75     0     0     0



@<TRIPOS>ATOM
      1 N1          4.4213    -4.3639    92.5270 N.4        1          -0.6359
      2 H1          5.1919    -3.7207    92.4240 H          1           0.4427
      3 H2          3.6160    -4.0054    92.0359 H          1           0.4462
      4 H3          4.6779    -5.2607    92.1425 H          1           0.4308
      5 C1          4.0979    -4.5164    93.9519 C.3        1           0.0979
      6 C2          2.9294    -5.4915    94.1081 C.3        1           0.0414
      7 O1          1.7890    -4.9838    93.4127 O.3        1          -0.3184
      8 C3          1.2830    -5.7517    92.4176 C.2        1           0.3500
      9 C4         -0.0441    -5.6944    92.1310 C.2        1          -0.2456
     10 C5         -0.5801    -6.4823    91.1052 C.2        1          -0.0486
     11 C6          0.2389    -7.3092    90.3938 C.2        1          -0.1311
     12 C7          1.6072    -7.3557    90.7026 C.2        1           0.1516
     13 C8          2.6784    -8.0843    90.1680 C.2        1          -0.2037
     14 C9          3.8309    -7.7126    90.8892 C.2        1           0.1847
     15 N2          3.4878    -6.8217    91.7983 N.2        1          -0.2919
     16 N3          2.1128    -6.5729    91.7072 N.pl3      1          -0.2785
     17 C10         5.2001    -8.2367    90.6638 C.ar       1          -0.0138
     18 C11         5.4559    -9.6014    90.7908 C.ar       1          -0.0975
     19 C12         6.7307   -10.0874    90.5807 C.ar       1          -0.0947
     20 C13         7.7569    -9.2248    90.2440 C.ar       1          -0.1251
     21 C14         7.5111    -7.8634    90.1154 C.ar       1           0.1610
     22 N4          8.5530    -6.9932    89.7748 N.am       1          -0.6810
     23 C15         9.5739    -7.4306    89.0111 C.2        1           0.7061
     24 O2          9.5894    -8.5811    88.6179 O.2        1          -0.5551
     25 N5         10.5771    -6.5927    88.6831 N.am       1          -0.6815
     26 C16        11.6371    -7.0467    87.8901 C.ar       1           0.1623
     27 C17        12.9041    -6.4990    88.0421 C.ar       1          -0.1442
     28 C18        13.9481    -6.9497    87.2583 C.ar       1          -0.0977
     29 C19        13.7327    -7.9448    86.3226 C.ar       1          -0.1357
     30 C20        12.4720    -8.4919    86.1685 C.ar       1          -0.1033
     31 C21        11.4252    -8.0498    86.9535 C.ar       1          -0.1214
     32 C22         6.2321    -7.3678    90.3192 C.ar       1          -0.0851
     33 C23         2.6122    -9.0578    89.0587 C.ar       1           0.0433
     34 C24         3.3557    -8.8658    87.8866 C.ar       1          -0.1664
     35 C25         3.2642    -9.7994    86.8775 C.ar       1           0.1045
     36 N6          2.4904   -10.8617    87.0042 N.ar       1          -0.4823
     37 C26         1.7735   -11.0810    88.0911 C.ar       1           0.1063
     38 C27         1.8088   -10.2020    89.1516 C.ar       1          -0.1550
     39 C28         5.3005    -5.0518    94.6853 C.ar       1          -0.1552
     40 C29         5.4817    -6.4164    94.8123 C.ar       1          -0.1179
     41 C30         6.5848    -6.9075    95.4851 C.ar       1          -0.1036
     42 C31         7.5071    -6.0342    96.0306 C.ar       1          -0.0824
     43 C32         7.3264    -4.6696    95.9028 C.ar       1          -0.1046
     44 C33         6.2255    -4.1785    95.2263 C.ar       1          -0.0795
     45 H4          3.8207    -3.5475    94.3673 H          1           0.1623
     46 H5          3.2066    -6.4605    93.6928 H          1           0.0993
     47 H6          2.6895    -5.6047    95.1654 H          1           0.1213
     48 H7         -0.6883    -5.0381    92.6972 H          1           0.1582
     49 H8         -1.6353    -6.4361    90.8792 H          1           0.1522
     50 H9         -0.1618    -7.9225    89.6003 H          1           0.1556
     51 H10         4.6566   -10.2783    91.0540 H          1           0.1277
     52 H11         6.9268   -11.1447    90.6797 H          1           0.1366
     53 H12         8.7527    -9.6099    90.0810 H          1           0.1330
     54 H13         8.5405    -6.0754    90.0884 H          1           0.4124
     55 H14        10.5646    -5.6748    88.9967 H          1           0.4110
     56 H15        13.0728    -5.7213    88.7723 H          1           0.1270
     57 H16        14.9337    -6.5242    87.3760 H          1           0.1287
     58 H17        14.5506    -8.2952    85.7106 H          1           0.1238
     59 H18        12.3069    -9.2684    85.4364 H          1           0.1230
     60 H19        10.4418    -8.4806    86.8357 H          1           0.1346
     61 H20         6.0380    -6.3105    90.2152 H          1           0.1413
     62 H21         3.9904    -7.9990    87.7758 H          1           0.1331
     63 H22         3.8330    -9.6601    85.9701 H          1           0.1581
     64 H23         1.1539   -11.9635    88.1513 H          1           0.1580
     65 H24         1.2233   -10.3900    90.0394 H          1           0.1324
     66 H25         4.7611    -7.0987    94.3862 H          1           0.1226
     67 H26         6.7259    -7.9736    95.5850 H          1           0.1388
     68 H27         8.3686    -6.4179    96.5569 H          1           0.1391
     69 H28         8.0469    -3.9873    96.3293 H          1           0.1406
     70 H29         6.0863    -3.1125    95.1233 H          1           0.1376
@<TRIPOS>BOND
     1    1    2 1
     2    1    3 1
     3    1    4 1
     4    1    5 1
     5    5    6 1
     6    5   39 1
     7    5   45 1
     8    6    7 1
     9    6   46 1
    10    6   47 1
    11    7    8 1
    12    8   16 1
    13    8    9 2
    14    9   10 1
    15    9   48 1
    16   10   11 2
    17   10   49 1
    18   11   12 1
    19   11   50 1
    20   12   16 1
    21   12   13 2
    22   13   14 1
    23   13   33 1
    24   14   15 2
    25   14   17 1
    26   15   16 1
    27   17   32 ar
    28   17   18 ar
    29   18   19 ar
    30   18   51 1
    31   19   20 ar
    32   19   52 1
    33   20   21 ar
    34   20   53 1
    35   21   22 1
    36   21   32 ar
    37   22   23 am
    38   22   54 1
    39   23   24 2
    40   23   25 am
    41   25   26 1
    42   25   55 1
    43   26   31 ar
    44   26   27 ar
    45   27   28 ar
    46   27   56 1
    47   28   29 ar
    48   28   57 1
    49   29   30 ar
    50   29   58 1
    51   30   31 ar
    52   30   59 1
    53   31   60 1
    54   32   61 1
    55   33   38 ar
    56   33   34 ar
    57   34   35 ar
    58   34   62 1
    59   35   36 ar
    60   35   63 1
    61   36   37 ar
    62   37   38 ar
    63   37   64 1
    64   38   65 1
    65   39   44 ar
    66   39   40 ar
    67   40   41 ar
    68   40   66 1
    69   41   42 ar
    70   41   67 1
    71   42   43 ar
    72   42   68 1
    73   43   44 ar
    74   43   69 1
    75   44   70 1
##########                 Name:              T529166
##########          Protonation:                   69
##########               SMILES:   c1ccc2cc(ccc2c1)C[NH2+]CCCN3CCN(CC3)CCC[NH2+]Cc4ccc5ccccc5c4
##########            Long Name:   thyl-[3-[4-[3-(2-naphthylmethylammonio)propyl]piperazin-1-yl]propyl]ammonium
##########          FlexRecCode: 1
##########               Number:                  188
##########   Ligand Source File: /raidb/db2/rgc/tcams/tcams-0000509.db2.gz
##########           GlobalRank: 462
##########                 Rank:                    1
##########               Setnum:                  333
##########             Matchnum:                 1814
##########                Cloud:                    1
##########        Electrostatic:           -33.935230
##########        Van der Waals:           -34.625366
##########  Ligand Polar Desolv:             9.728761
########## Ligand Apolar Desolv:            -4.889214
##########      Internal Energy:             0.000000
##########      Receptor Energy: 0.0
########## Receptor Desolvation:             0.000000
########## Receptor Hydrophobic:             0.000000
##########         Total Energy: -63.72
##########        Ligand Charge:             2.000000
##########            Arbitrary:    +999.9990
##########     heavy atom count:   36
##########           pose count:    1
##########        Ligand Energy:             0.000000
# num electro vdwattr vdwrepu polsolv apolsol rdesolv rhydroe totalscore fullpol fullapo
#   1    3.01   -0.64    0.03   -2.00   -0.08    0.00    0.00       0.32   -5.34   -0.22
#   2    0.18   -0.82    0.09    0.37   -0.15    0.00    0.00      -0.34    1.00   -0.40
#   3   14.54   -0.89    0.10   -7.50    0.26    0.00    0.00       6.51  -21.16    0.73
#   4   -9.97   -0.01    0.00    2.46    0.07    0.00    0.00      -7.45   19.58    0.57
#   5  -16.14   -0.02    0.00    4.87    0.14    0.00    0.00     -11.15   20.02    0.57
#   6   -1.44   -1.15    0.20    1.33   -0.18    0.00    0.00      -1.24    3.02   -0.42
#   7    3.27   -1.62    0.35   -1.27   -0.14    0.00    0.00       0.58   -3.25   -0.37
#   8    0.76   -1.14    0.15   -0.67   -0.14    0.00    0.00      -1.04   -2.05   -0.44
#   9    0.52   -1.22    0.13   -0.67   -0.14    0.00    0.00      -1.38   -1.96   -0.40
#  10    0.34   -1.61    0.33   -0.61   -0.16    0.00    0.00      -1.71   -1.73   -0.46
#  11    0.42   -1.87    0.36   -1.04   -0.21    0.00    0.00      -2.33   -2.34   -0.47
#  12    0.61   -1.86    0.43   -1.01   -0.25    0.00    0.00      -2.08   -1.86   -0.47
#  13    1.11   -1.88    0.71   -0.97   -0.22    0.00    0.00      -1.26   -1.98   -0.46
#  14    0.40   -1.46    0.19   -0.63   -0.17    0.00    0.00      -1.67   -1.46   -0.40
#  15    1.38   -2.02    0.45   -1.86   -0.24    0.00    0.00      -2.29   -3.54   -0.46
#  16    2.21   -2.52    0.99   -0.98   -0.22    0.00    0.00      -0.52   -2.00   -0.45
#  17   -0.54   -0.67    0.15    0.39   -0.10    0.00    0.00      -0.77    1.53   -0.38
#  18    7.20   -0.62    0.05   -3.07    0.61    0.00    0.00       4.17  -16.04    3.19
#  19   -0.24   -0.38    0.02    0.20   -0.08    0.00    0.00      -0.48    0.95   -0.37
#  20   -1.37   -0.61    0.09    0.28   -0.11    0.00    0.00      -1.73    1.13   -0.45
#  21    7.33   -0.37    0.01   -2.11    0.48    0.00    0.00       5.34  -14.76    3.36
#  22   -0.29   -0.15    0.00    0.12   -0.03    0.00    0.00      -0.34    1.35   -0.33
#  23    0.48   -0.20    0.01   -0.69   -0.03    0.00    0.00      -0.42   -5.36   -0.22
#  24    0.02   -0.17    0.00    0.11   -0.04    0.00    0.00      -0.07    1.05   -0.40
#  25    4.50   -0.33    0.01   -3.30    0.11    0.00    0.00       1.00  -21.26    0.73
#  26   -4.52   -0.01    0.00    3.21    0.09    0.00    0.00      -1.23   19.55    0.57
#  27   -5.41    0.00    0.00    1.06    0.03    0.00    0.00      -4.33   20.17    0.57
#  28   -0.39   -0.23    0.01    0.43   -0.06    0.00    0.00      -0.24    3.07   -0.42
#  29    2.78   -0.51    0.02   -0.63   -0.07    0.00    0.00       1.60   -3.35   -0.37
#  30    3.06   -1.19    0.16   -0.67   -0.15    0.00    0.00       1.21   -2.03   -0.45
#  31    2.59   -2.04    0.86   -1.40   -0.18    0.00    0.00      -0.17   -3.54   -0.46
#  32    0.80   -1.63    0.74   -0.50   -0.14    0.00    0.00      -0.73   -1.45   -0.40
#  33    2.13   -2.96    2.18   -0.90   -0.20    0.00    0.00       0.25   -2.03   -0.46
#  34    0.91   -2.18    0.64   -0.82   -0.21    0.00    0.00      -1.64   -1.86   -0.47
#  35    0.81   -1.60    0.61   -0.83   -0.16    0.00    0.00      -1.16   -2.46   -0.47
#  36    1.18   -0.93    0.21   -0.39   -0.10    0.00    0.00      -0.03   -1.72   -0.46
#  37    1.03   -0.69    0.06   -0.44   -0.09    0.00    0.00      -0.12   -2.03   -0.40
#  38    0.90   -0.38    0.01   -0.29   -0.07    0.00    0.00       0.18   -1.89   -0.44
#  39   -0.53   -0.26    0.01    0.20   -0.06    0.00    0.00      -0.64    1.36   -0.43
#  40   -0.07   -0.67    0.21    0.14   -0.07    0.00    0.00      -0.45    0.75   -0.39
#  41   -1.80   -0.26    0.02    1.08   -0.07    0.00    0.00      -1.03    3.41   -0.22
#  42   -2.46   -0.18    0.01    0.48   -0.05    0.00    0.00      -2.20    2.73   -0.28
#  43   -3.26   -0.63    0.35    2.31   -0.09    0.00    0.00      -1.33    7.15   -0.28
#  44   -2.02   -0.22    0.01    1.73   -0.07    0.00    0.00      -0.57    6.58   -0.28
#  45   -5.32   -0.62    0.36    3.24   -0.12    0.00    0.00      -2.46    7.80   -0.28
#  46   -4.20   -0.50    0.17    3.58   -0.13    0.00    0.00      -1.08    7.45   -0.28
#  47   -1.61   -0.15    0.01    0.94   -0.04    0.00    0.00      -0.85    6.31   -0.28
#  48    0.02   -0.44    0.20    0.82   -0.07    0.00    0.00       0.54    3.32   -0.28
#  49   -0.63   -0.60    0.42    0.55   -0.11    0.00    0.00      -0.37    1.39   -0.28
#  50   -0.95   -0.41    0.06    0.47   -0.14    0.00    0.00      -0.97    0.95   -0.28
#  51   -1.70   -0.42    0.12    0.55   -0.11    0.00    0.00      -1.56    1.38   -0.28
#  52   -2.79   -0.45    0.07    1.06   -0.14    0.00    0.00      -2.26    2.08   -0.28
#  53   -2.56   -0.75    0.51    3.07   -0.13    0.00    0.00       0.13    6.48   -0.28
#  54    0.26   -0.67    1.22    0.57   -0.07    0.00    0.00       1.31    2.43   -0.28
#  55   -0.47   -0.15    0.01    0.25   -0.04    0.00    0.00      -0.40    1.86   -0.28
#  56   -0.45   -0.08    0.00    0.11   -0.02    0.00    0.00      -0.44    1.53   -0.23
#  57   -2.09   -0.16    0.01    0.49   -0.04    0.00    0.00      -1.79    2.84   -0.21
#  58   -2.05   -0.27    0.05    0.43   -0.07    0.00    0.00      -1.91    1.79   -0.28
#  59   -3.79   -0.47    0.33    0.10   -0.06    0.00    0.00      -3.88    0.47   -0.28
#  60   -0.11   -0.03    0.00    0.07   -0.01    0.00    0.00      -0.07    1.93   -0.17
#  61   -0.44   -0.05    0.00    0.11   -0.01    0.00    0.00      -0.39    2.37   -0.28
#  62   -0.15   -0.04    0.00    0.11   -0.01    0.00    0.00      -0.08    2.69   -0.28
#  63   -0.25   -0.12    0.01    0.46   -0.03    0.00    0.00       0.07    3.47   -0.22
#  64   -0.29   -0.02    0.00    0.22   -0.01    0.00    0.00      -0.10    7.38   -0.28
#  65   -0.30   -0.07    0.00    0.44   -0.02    0.00    0.00       0.05    6.56   -0.28
#  66   -0.75   -0.04    0.00    0.33   -0.01    0.00    0.00      -0.46    8.09   -0.28
#  67   -0.57   -0.09    0.00    0.70   -0.03    0.00    0.00       0.01    7.39   -0.28
#  68   -3.16   -0.33    0.09    1.57   -0.07    0.00    0.00      -1.90    6.00   -0.28
#  69   -5.28   -0.67    0.32    0.82   -0.13    0.00    0.00      -4.94    1.81   -0.28
#  70   -3.15   -1.02    0.88    0.61   -0.14    0.00    0.00      -2.82    1.22   -0.28
#  71   -0.65   -0.68    0.28    0.43   -0.13    0.00    0.00      -0.74    0.94   -0.28
#  72   -0.35   -0.38    0.16    0.45   -0.08    0.00    0.00      -0.20    1.55   -0.28
#  73   -1.10   -0.14    0.03    0.44   -0.03    0.00    0.00      -0.80    3.74   -0.28
#  74   -1.40   -0.04    0.00    0.26   -0.01    0.00    0.00      -1.18    6.95   -0.28
#  75   -0.45   -0.07    0.00    0.20   -0.02    0.00    0.00      -0.33    3.08   -0.23
#  76   -1.60   -0.08    0.00    0.02   -0.02    0.00    0.00      -1.68    0.25   -0.28
#  77    0.36   -0.57    0.60    0.37   -0.06    0.00    0.00       0.71    1.74   -0.28
#  78   -0.02   -0.21    0.06    0.30   -0.03    0.00    0.00       0.10    2.03   -0.22

@<TRIPOS>MOLECULE
          T529166        69
   78    82     0     0     0



@<TRIPOS>ATOM
      1 C1          3.1028    -6.2032    95.7105 C.3        1          -0.1497
      2 C2          4.5765    -6.0977    96.1082 C.3        1          -0.0082
      3 N1          5.3988    -5.9363    94.9016 N.4        1          -0.5085
      4 H1          5.2697    -6.7340    94.2975 H          1           0.4287
      5 H2          5.1210    -5.0973    94.4150 H          1           0.4277
      6 C3          6.8138    -5.8351    95.2835 C.3        1           0.0474
      7 C4          7.2288    -7.0882    96.0103 C.ar       1          -0.1672
      8 C5          6.8655    -8.3024    95.5141 C.ar       1          -0.0585
      9 C6          7.2507    -9.4730    96.1893 C.ar       1          -0.0615
     10 C7          6.8951   -10.7444    95.7075 C.ar       1          -0.1061
     11 C8          7.2864   -11.8561    96.3880 C.ar       1          -0.1008
     12 C9          8.0365   -11.7543    97.5584 C.ar       1          -0.0910
     13 C10         8.3988   -10.5401    98.0550 C.ar       1          -0.1119
     14 C11         8.0135    -9.3694    97.3795 C.ar       1          -0.0341
     15 C12         8.3698    -8.0983    97.8611 C.ar       1          -0.0828
     16 C13         7.9836    -6.9866    97.1773 C.ar       1          -0.1191
     17 C14         2.9073    -7.4129    94.7943 C.3        1           0.0583
     18 N2          3.7298    -7.2513    93.5878 N.3        1          -0.5316
     19 C15         3.1234    -6.2841    92.6625 C.3        1           0.0126
     20 C16         4.0476    -6.0851    91.4589 C.3        1           0.0555
     21 N3          4.2685    -7.3776    90.7952 N.3        1          -0.5298
     22 C17         3.0166    -7.9010    90.2325 C.3        1           0.0505
     23 C18         2.7275    -7.2077    88.8995 C.3        1          -0.1507
     24 C19         3.8762    -7.4764    87.9252 C.3        1          -0.0078
     25 N4          5.1281    -6.9530    88.4880 N.4        1          -0.5085
     26 H3          5.0398    -5.9592    88.6380 H          1           0.4304
     27 H4          5.3187    -7.4103    89.3671 H          1           0.4267
     28 C20         6.2311    -7.2111    87.5528 C.3        1           0.0475
     29 C21         7.5154    -6.6741    88.1301 C.ar       1          -0.1659
     30 C22         7.8922    -5.3598    87.8609 C.ar       1          -0.1186
     31 C23         9.0459    -4.8440    88.3664 C.ar       1          -0.0820
     32 C24         9.8716    -5.6460    89.1725 C.ar       1          -0.0340
     33 C25        11.0698    -5.1485    89.7126 C.ar       1          -0.1108
     34 C26        11.8440    -5.9544    90.4895 C.ar       1          -0.0918
     35 C27        11.4671    -7.2690    90.7585 C.ar       1          -0.1007
     36 C28        10.3140    -7.7850    90.2523 C.ar       1          -0.1073
     37 C29         9.4879    -6.9827    89.4466 C.ar       1          -0.0615
     38 C30         8.2871    -7.4785    88.9111 C.ar       1          -0.0604
     39 C31         4.8749    -8.3447    91.7206 C.3        1           0.0498
     40 C32         3.9507    -8.5438    92.9241 C.3        1           0.0179
     41 H5          2.4926    -6.3229    96.6057 H          1           0.0869
     42 H6          2.8026    -5.2969    95.1846 H          1           0.0995
     43 H7          4.7158    -5.2358    96.7609 H          1           0.1303
     44 H8          4.8766    -7.0041    96.6340 H          1           0.1341
     45 H9          7.4239    -5.7153    94.3882 H          1           0.1378
     46 H10         6.9533    -4.9733    95.9361 H          1           0.1376
     47 H11         6.2838    -8.3658    94.6064 H          1           0.1350
     48 H12         6.3139   -10.8387    94.8021 H          1           0.1340
     49 H13         7.0115   -12.8319    96.0157 H          1           0.1348
     50 H14         8.3341   -12.6523    98.0793 H          1           0.1355
     51 H15         8.9801   -10.4766    98.9629 H          1           0.1370
     52 H16         8.9508    -8.0042    98.7666 H          1           0.1388
     53 H17         8.2627    -6.0110    97.5471 H          1           0.1286
     54 H18         3.2075    -8.3192    95.3200 H          1           0.0881
     55 H19         1.8575    -7.4880    94.5108 H          1           0.0428
     56 H20         2.1592    -6.6618    92.3222 H          1           0.0370
     57 H21         2.9815    -5.3318    93.1734 H          1           0.0849
     58 H22         3.5864    -5.3901    90.7573 H          1           0.0883
     59 H23         5.0023    -5.6818    91.7964 H          1           0.0947
     60 H24         3.1119    -8.9747    90.0704 H          1           0.0435
     61 H25         2.1982    -7.7096    90.9266 H          1           0.0868
     62 H26         1.7986    -7.5960    88.4819 H          1           0.1006
     63 H27         2.6321    -6.1341    89.0616 H          1           0.0873
     64 H28         3.9716    -8.5500    87.7632 H          1           0.1280
     65 H29         3.6704    -6.9824    86.9757 H          1           0.1341
     66 H30         6.3265    -8.2848    87.3907 H          1           0.1356
     67 H31         6.0253    -6.7173    86.6031 H          1           0.1390
     68 H32         7.2596    -4.7413    87.2416 H          1           0.1301
     69 H33         9.3256    -3.8238    88.1488 H          1           0.1395
     70 H34        11.3750    -4.1321    89.5120 H          1           0.1374
     71 H35        12.7643    -5.5697    90.9033 H          1           0.1355
     72 H36        12.0998    -7.8875    91.3777 H          1           0.1343
     73 H37        10.0351    -8.8058    90.4687 H          1           0.1329
     74 H38         7.9801    -8.4936    89.1151 H          1           0.1335
     75 H39         5.0169    -9.2970    91.2097 H          1           0.0844
     76 H40         5.8391    -7.9670    92.0610 H          1           0.0951
     77 H41         4.4119    -9.2388    93.6258 H          1           0.0884
     78 H42         2.9959    -8.9472    92.5867 H          1           0.0360
@<TRIPOS>BOND
     1    1    2 1
     2    1   17 1
     3    1   41 1
     4    1   42 1
     5    2    3 1
     6    2   43 1
     7    2   44 1
     8    3    4 1
     9    3    5 1
    10    3    6 1
    11    6    7 1
    12    6   45 1
    13    6   46 1
    14    7   16 ar
    15    7    8 ar
    16    8    9 ar
    17    8   47 1
    18    9   14 ar
    19    9   10 ar
    20   10   11 ar
    21   10   48 1
    22   11   12 ar
    23   11   49 1
    24   12   13 ar
    25   12   50 1
    26   13   14 ar
    27   13   51 1
    28   14   15 ar
    29   15   16 ar
    30   15   52 1
    31   16   53 1
    32   17   18 1
    33   17   54 1
    34   17   55 1
    35   18   40 1
    36   18   19 1
    37   19   20 1
    38   19   56 1
    39   19   57 1
    40   20   21 1
    41   20   58 1
    42   20   59 1
    43   21   22 1
    44   21   39 1
    45   22   23 1
    46   22   60 1
    47   22   61 1
    48   23   24 1
    49   23   62 1
    50   23   63 1
    51   24   25 1
    52   24   64 1
    53   24   65 1
    54   25   26 1
    55   25   27 1
    56   25   28 1
    57   28   29 1
    58   28   66 1
    59   28   67 1
    60   29   38 ar
    61   29   30 ar
    62   30   31 ar
    63   30   68 1
    64   31   32 ar
    65   31   69 1
    66   32   37 ar
    67   32   33 ar
    68   33   34 ar
    69   33   70 1
    70   34   35 ar
    71   34   71 1
    72   35   36 ar
    73   35   72 1
    74   36   37 ar
    75   36   73 1
    76   37   38 ar
    77   38   74 1
    78   39   40 1
    79   39   75 1
    80   39   76 1
    81   40   77 1
    82   40   78 1
##########                 Name:              T529710
##########          Protonation:                   24
##########               SMILES:   COc1ccc2c(n1)c(c(cn2)OC)CCN3CC[C@@H]([C@@H](C3)O)[NH2+]Cc4ccc5c(n4)NC(=O)CS5
##########            Long Name:   droxy-4-piperidyl]-[(3-oxo-4H-pyrido[3,2-b][1,4]thiazin-6-yl)methyl]ammonium
##########          FlexRecCode: 1
##########               Number:                  239
##########   Ligand Source File: /raidb/db2/rgc/tcams/tcams-0000635.db2.gz
##########           GlobalRank: 462
##########                 Rank:                    1
##########               Setnum:                  117
##########             Matchnum:                 5277
##########                Cloud:                    1
##########        Electrostatic:           -54.351219
##########        Van der Waals:           -22.169794
##########  Ligand Polar Desolv:            13.214184
########## Ligand Apolar Desolv:            -0.414481
##########      Internal Energy:             0.000000
##########      Receptor Energy: 0.0
########## Receptor Desolvation:             0.000000
########## Receptor Hydrophobic:             0.000000
##########         Total Energy: -63.72
##########        Ligand Charge:             1.000000
##########            Arbitrary:    +999.9990
##########     heavy atom count:   36
##########           pose count:    1
##########        Ligand Energy:             0.000000
# num electro vdwattr vdwrepu polsolv apolsol rdesolv rhydroe totalscore fullpol fullapo
#   1   -0.37   -0.49    0.04    0.07    0.01    0.00    0.00      -0.74    0.28    0.03
#   2    1.94   -1.02    0.18   -1.26    0.30    0.00    0.00       0.14   -3.83    0.90
#   3   -0.45   -1.32    0.49    1.02   -0.20    0.00    0.00      -0.46    3.33   -0.66
#   4    0.09   -2.39    1.14   -0.65   -0.20    0.00    0.00      -2.01   -1.51   -0.46
#   5    0.00   -1.96    0.42   -0.10   -0.22    0.00    0.00      -1.86   -0.21   -0.48
#   6   -0.02   -1.31    0.27   -0.08   -0.25    0.00    0.00      -1.38   -0.22   -0.73
#   7    0.45   -2.06    0.93   -0.65    0.66    0.00    0.00      -0.68   -1.96    1.98
#   8   -0.08   -0.93    0.16    0.05   -0.21    0.00    0.00      -1.01    0.23   -0.90
#   9   -0.18   -0.34    0.01    0.09   -0.04    0.00    0.00      -0.46    0.67   -0.31
#  10    0.52   -0.15    0.00   -0.21    0.06    0.00    0.00       0.22   -2.82    0.84
#  11   -0.03   -0.20    0.01    0.00    0.00    0.00    0.00      -0.22    0.03    0.03
#  12    0.14   -0.30    0.01   -0.09   -0.04    0.00    0.00      -0.29   -0.74   -0.36
#  13    0.12   -0.11    0.00   -0.03   -0.01    0.00    0.00      -0.04   -0.49   -0.22
#  14   -0.51   -0.18    0.00    0.18   -0.04    0.00    0.00      -0.55    1.51   -0.38
#  15    4.20   -0.26    0.01   -1.15    0.32    0.00    0.00       3.11  -11.33    3.15
#  16   -0.20   -0.28    0.02    0.04   -0.05    0.00    0.00      -0.48    0.27   -0.38
#  17    2.27   -0.31    0.01   -0.72   -0.04    0.00    0.00       1.20   -3.81   -0.23
#  18   -1.05   -0.63    0.14    0.49   -0.05    0.00    0.00      -1.10    2.16   -0.24
#  19   22.44   -2.60    4.07   -5.72    0.21    0.00    0.00      18.41  -16.00    0.60
#  20  -29.85   -0.35    0.43    4.61    0.17    0.00    0.00     -24.99   13.77    0.52
#  21  -18.59   -0.05    0.00    4.76    0.11    0.00    0.00     -13.77   14.34    0.34
#  22   -1.71   -0.85    0.09    0.80   -0.16    0.00    0.00      -1.83    2.05   -0.41
#  23   -2.35   -1.16    0.11    1.15   -0.26    0.00    0.00      -2.52    3.08   -0.70
#  24    4.28   -2.57    1.66   -1.45   -0.22    0.00    0.00       1.71   -3.00   -0.45
#  25    0.20   -2.81    2.78   -0.29   -0.22    0.00    0.00      -0.34   -0.60   -0.46
#  26    2.52   -1.40    0.17   -1.22   -0.12    0.00    0.00      -0.05   -2.84   -0.28
#  27    0.41   -2.75    0.44   -0.69   -0.41    0.00    0.00      -3.00   -1.33   -0.80
#  28    1.21   -0.93    0.12   -0.47   -0.05    0.00    0.00      -0.12   -1.20   -0.14
#  29   -0.88   -2.87    1.32    1.55   -0.26    0.00    0.00      -1.14    3.85   -0.65
#  30   -2.21   -5.81    6.27   -0.72    0.20    0.00    0.00      -2.27   -1.50    0.42
#  31    0.78   -2.89    1.89   -2.57    0.60    0.00    0.00      -2.20   -6.89    1.60
#  32   -4.36   -1.16    0.10    1.70   -0.76    0.00    0.00      -4.48    4.62   -2.06
#  33    7.56   -0.89    0.05   -3.09    0.62    0.00    0.00       4.25   -9.65    1.92
#  34   -2.85   -0.91    0.43    0.62   -0.03    0.00    0.00      -2.74    2.59   -0.14
#  35   20.16   -1.92    1.01   -4.16    0.49    0.00    0.00      15.57  -13.82    1.62
#  36   -0.14   -0.23    0.01    0.02   -0.05    0.00    0.00      -0.39    0.17   -0.37
#  37   -0.23   -0.59    0.04    0.21   -0.15    0.00    0.00      -0.72    1.00   -0.73
#  38    0.79   -0.64    0.08   -1.04    0.52    0.00    0.00      -0.29   -5.08    2.54
#  39   -1.74   -0.20    0.04    0.49   -0.05    0.00    0.00      -1.46    2.97   -0.28
#  40   -0.19   -0.11    0.01    0.12   -0.03    0.00    0.00      -0.21    1.06   -0.28
#  41   -0.50   -0.13    0.01    0.24   -0.03    0.00    0.00      -0.41    2.06   -0.28
#  42    0.02   -1.79    5.49    0.84   -0.12    0.00    0.00       4.43    1.93   -0.28
#  43    0.01   -0.56    0.14    0.63   -0.14    0.00    0.00       0.08    1.25   -0.28
#  44   -0.29   -0.21    0.04    0.31   -0.04    0.00    0.00      -0.18    1.76   -0.22
#  45   -0.20   -0.05    0.00    0.10   -0.02    0.00    0.00      -0.16    1.80   -0.28
#  46   -0.10   -0.05    0.00    0.04   -0.01    0.00    0.00      -0.13    0.79   -0.27
#  47   -0.15   -0.10    0.00    0.08   -0.02    0.00    0.00      -0.18    0.93   -0.27
#  48   -0.15   -0.03    0.00    0.05   -0.01    0.00    0.00      -0.13    1.46   -0.21
#  49   -0.09   -0.02    0.00    0.02   -0.01    0.00    0.00      -0.10    0.74   -0.26
#  50   -0.64   -0.05    0.00    0.02   -0.01    0.00    0.00      -0.68    0.43   -0.27
#  51   -0.45   -0.09    0.00    0.06   -0.03    0.00    0.00      -0.50    0.54   -0.28
#  52   -0.08   -0.07    0.00    0.19   -0.02    0.00    0.00       0.03    2.62   -0.22
#  53   -0.18   -0.20    0.05    0.26   -0.03    0.00    0.00      -0.09    1.85   -0.22
#  54   -1.73   -0.11    0.01    0.71   -0.03    0.00    0.00      -1.16    5.89   -0.22
#  55   -1.87   -0.08    0.00    0.20   -0.02    0.00    0.00      -1.77    2.61   -0.28
#  56   -3.26   -0.12    0.01    0.68   -0.03    0.00    0.00      -2.73    6.13   -0.28
#  57   -5.47   -0.40    0.05    3.52   -0.09    0.00    0.00      -2.39    8.48   -0.22
#  58   -3.88   -0.15    0.00    0.82   -0.04    0.00    0.00      -3.25    5.80   -0.28
#  59   -5.29   -0.75    0.46    4.25   -0.15    0.00    0.00      -1.47    7.95   -0.28
#  60   -3.43   -0.85    0.98    1.72   -0.14    0.00    0.00      -1.72    3.53   -0.28
#  61   -1.58   -0.24    0.04    0.28   -0.05    0.00    0.00      -1.57    1.41   -0.28
#  62   -1.15   -0.31    0.06    0.49   -0.07    0.00    0.00      -0.98    1.90   -0.28
#  63    3.45   -0.15    0.06    1.83    0.23    0.00    0.00       5.42    4.66    0.59
#  64   -4.64   -0.57    0.66    0.50   -0.07    0.00    0.00      -4.12    2.00   -0.28
#  65  -22.99   -0.14    0.03    3.60    0.45    0.00    0.00     -19.05    9.70    1.22
#  66   -1.25   -0.07    0.00    0.06   -0.02    0.00    0.00      -1.27    1.07   -0.28
#  67   -0.49   -0.05    0.00    0.08   -0.01    0.00    0.00      -0.47    1.71   -0.24

@<TRIPOS>MOLECULE
          T529710        24
   67    71     0     0     0



@<TRIPOS>ATOM
      1 C1         -0.3105    -5.9618    91.6841 C.3        1           0.0398
      2 O1         -0.8469    -5.1010    90.6774 O.3        1          -0.2982
      3 C2         -0.3544    -5.2402    89.4220 C.ar       1           0.3653
      4 C3         -0.8423    -4.4168    88.3999 C.ar       1          -0.1744
      5 C4         -0.3570    -4.5442    87.1328 C.ar       1           0.0058
      6 C5          0.6358    -5.5162    86.8902 C.ar       1           0.0187
      7 N1          1.1484    -5.6855    85.6689 N.ar       1          -0.4127
      8 C6          2.0711    -6.5858    85.4347 C.ar       1           0.0565
      9 C7          2.5622    -7.4114    86.4520 C.ar       1           0.1090
     10 O2          3.5196    -8.3350    86.1765 O.3        1          -0.3021
     11 C8          3.9795    -8.4097    84.8256 C.3        1           0.0182
     12 C9          2.0757    -7.2858    87.7267 C.ar       1          -0.0879
     13 C10         2.5884    -8.1625    88.8400 C.3        1          -0.0537
     14 C11         3.7854    -7.4864    89.5114 C.3        1           0.0682
     15 N2          4.2852    -8.3409    90.5968 N.3        1          -0.5258
     16 C12         3.4030    -8.2733    91.7689 C.3        1           0.0324
     17 C13         3.3889    -6.8449    92.3177 C.3        1          -0.1417
     18 C14         4.8139    -6.4425    92.7063 C.3        1           0.0375
     19 N3          4.8183    -5.0568    93.1938 N.4        1          -0.5051
     20 H1          5.7540    -4.6835    93.1378 H          1           0.4392
     21 H2          4.1988    -4.4985    92.6259 H          1           0.4180
     22 C15         4.3622    -5.0274    94.5900 C.3        1           0.0525
     23 C16         5.2874    -5.8613    95.4384 C.ar       1           0.0895
     24 C17         6.3855    -5.2656    96.0275 C.ar       1          -0.1516
     25 C18         7.2350    -6.0405    96.8066 C.ar       1          -0.0097
     26 C19         6.9389    -7.3854    96.9579 C.ar       1          -0.1574
     27 S1          7.9801    -8.4309    97.9238 S.3        1          -0.0267
     28 C20         7.7804   -10.0461    97.1132 C.3        1          -0.1381
     29 C21         6.3190   -10.2482    96.8237 C.2        1           0.5300
     30 O3          5.8725   -11.3729    96.9064 O.2        1          -0.4806
     31 N4          5.4866    -9.2695    96.4823 N.am       1          -0.6453
     32 C22         5.8098    -7.9276    96.3391 C.ar       1           0.3827
     33 N5          5.0286    -7.1426    95.6071 N.ar       1          -0.4839
     34 C23         5.7154    -6.5555    91.4742 C.3        1           0.0916
     35 O4          5.2543    -5.6595    90.4611 O.3        1          -0.5722
     36 C24         5.6678    -7.9914    90.9476 C.3        1           0.0093
     37 C25         1.0851    -6.3162    87.9686 C.ar       1           0.1644
     38 N6          0.5753    -6.1423    89.1923 N.ar       1          -0.5413
     39 H3         -0.7898    -5.7469    92.6392 H          1           0.0990
     40 H4         -0.4960    -7.0006    91.4103 H          1           0.0620
     41 H5          0.7631    -5.7950    91.7705 H          1           0.0527
     42 H6         -1.6031    -3.6811    88.6154 H          1           0.1557
     43 H7         -0.7238    -3.9165    86.3342 H          1           0.1600
     44 H8          2.4613    -6.6935    84.4335 H          1           0.1706
     45 H9          4.7407    -9.1854    84.7432 H          1           0.1099
     46 H10         3.1428    -8.6506    84.1697 H          1           0.0638
     47 H11         4.4055    -7.4500    84.5333 H          1           0.0625
     48 H12         1.7983    -8.3157    89.5750 H          1           0.0832
     49 H13         2.8966    -9.1250    88.4319 H          1           0.0903
     50 H14         4.5757    -7.3331    88.7764 H          1           0.0839
     51 H15         3.4772    -6.5237    89.9195 H          1           0.0419
     52 H16         2.3922    -8.5608    91.4794 H          1           0.0296
     53 H17         3.7678    -8.9542    92.5377 H          1           0.1133
     54 H18         3.0137    -6.1644    91.5535 H          1           0.1036
     55 H19         2.7448    -6.7983    93.1959 H          1           0.1280
     56 H20         5.1800    -7.1062    93.4896 H          1           0.1530
     57 H21         4.3656    -3.9991    94.9517 H          1           0.1512
     58 H22         3.3514    -5.4305    94.6506 H          1           0.1524
     59 H23         6.5807    -4.2131    95.8841 H          1           0.1556
     60 H24         8.1027    -5.6066    97.2811 H          1           0.1647
     61 H25         8.3454   -10.0618    96.1811 H          1           0.1648
     62 H26         8.1368   -10.8358    97.7746 H          1           0.1382
     63 H27         4.5635    -9.5176    96.3171 H          1           0.4235
     64 H28         6.7395    -6.3007    91.7474 H          1           0.1160
     65 H29         5.2530    -4.7302    90.7287 H          1           0.4103
     66 H30         6.0304    -8.6727    91.7174 H          1           0.1054
     67 H31         6.2990    -8.0748    90.0629 H          1           0.0349
@<TRIPOS>BOND
     1    1    2 1
     2    1   39 1
     3    1   40 1
     4    1   41 1
     5    2    3 1
     6    3   38 ar
     7    3    4 ar
     8    4    5 ar
     9    4   42 1
    10    5    6 ar
    11    5   43 1
    12    6   37 ar
    13    6    7 ar
    14    7    8 ar
    15    8    9 ar
    16    8   44 1
    17    9   10 1
    18    9   12 ar
    19   10   11 1
    20   11   45 1
    21   11   46 1
    22   11   47 1
    23   12   13 1
    24   12   37 ar
    25   13   14 1
    26   13   48 1
    27   13   49 1
    28   14   15 1
    29   14   50 1
    30   14   51 1
    31   15   36 1
    32   15   16 1
    33   16   17 1
    34   16   52 1
    35   16   53 1
    36   17   18 1
    37   17   54 1
    38   17   55 1
    39   18   19 1
    40   18   34 1
    41   18   56 1
    42   19   20 1
    43   19   21 1
    44   19   22 1
    45   22   23 1
    46   22   57 1
    47   22   58 1
    48   23   33 ar
    49   23   24 ar
    50   24   25 ar
    51   24   59 1
    52   25   26 ar
    53   25   60 1
    54   26   32 ar
    55   26   27 1
    56   27   28 1
    57   28   29 1
    58   28   61 1
    59   28   62 1
    60   29   30 2
    61   29   31 am
    62   31   32 1
    63   31   63 1
    64   32   33 ar
    65   34   35 1
    66   34   36 1
    67   34   64 1
    68   35   65 1
    69   36   66 1
    70   36   67 1
    71   37   38 ar
##########                 Name:              T527683
##########          Protonation:                   24
##########               SMILES:   C[NH+]([C@H]1CCN(CC1)c2[nH+]ccc(c2)NC(=O)c3cc(ccc3)F)Cc4cc(ccc4)O
##########            Long Name:   o]pyridin-1-ium-2-yl]-4-piperidyl]-[(3-hydroxyphenyl)methyl]-methyl-ammonium
##########          FlexRecCode: 1
##########               Number:                   57
##########   Ligand Source File: /raidb/db2/rgc/tcams/tcams-0000328.db2.gz
##########           GlobalRank: 465
##########                 Rank:                    1
##########               Setnum:                  156
##########             Matchnum:                 1749
##########                Cloud:                    1
##########        Electrostatic:           -40.254440
##########        Van der Waals:           -25.829041
##########  Ligand Polar Desolv:             4.712558
########## Ligand Apolar Desolv:            -2.329682
##########      Internal Energy:             0.000000
##########      Receptor Energy: 0.0
########## Receptor Desolvation:             0.000000
########## Receptor Hydrophobic:             0.000000
##########         Total Energy: -63.7
##########        Ligand Charge:             2.000000
##########            Arbitrary:    +999.9990
##########     heavy atom count:   32
##########           pose count:    1
##########        Ligand Energy:             0.000000
# num electro vdwattr vdwrepu polsolv apolsol rdesolv rhydroe totalscore fullpol fullapo
#   1    0.50   -0.11    0.00   -0.21   -0.03    0.00    0.00       0.15   -3.16   -0.44
#   2    3.07   -0.15    0.00   -1.29    0.02    0.00    0.00       1.65  -16.51    0.21
#   3   -1.85    0.00    0.00    0.65    0.02    0.00    0.00      -1.18   20.74    0.54
#   4   -0.43   -0.26    0.01    0.38   -0.05    0.00    0.00      -0.35    2.47   -0.34
#   5    0.75   -0.70    0.08   -0.57   -0.07    0.00    0.00      -0.51   -2.76   -0.33
#   6    0.32   -0.63    0.10   -0.47   -0.06    0.00    0.00      -0.73   -2.76   -0.36
#   7    0.25   -0.76    0.07   -0.85   -0.12    0.00    0.00      -1.40   -3.40   -0.47
#   8    0.34   -1.45    0.25   -1.56   -0.18    0.00    0.00      -2.59   -4.04   -0.46
#   9   -0.51   -2.13    0.80    0.26   -0.12    0.00    0.00      -1.70    0.66   -0.31
#  10    2.26   -4.34    4.12   -5.04    0.60    0.00    0.00      -2.41  -10.04    1.19
#  11    0.66   -1.36    0.28   -1.08   -0.15    0.00    0.00      -1.66   -3.33   -0.46
#  12   -0.25   -0.16    0.00    0.21   -0.02    0.00    0.00      -0.22    2.08   -0.16
#  13    3.84   -0.52    0.07   -1.58   -0.05    0.00    0.00       1.77   -7.48   -0.22
#  14   -3.32   -0.99    0.37    1.01   -0.13    0.00    0.00      -3.05    3.79   -0.48
#  15   10.57   -0.46    0.02   -4.19    0.29    0.00    0.00       6.23  -24.61    1.69
#  16   -0.85   -0.16    0.00    0.41   -0.05    0.00    0.00      -0.64    4.19   -0.48
#  17    1.05   -0.11    0.00   -0.56   -0.02    0.00    0.00       0.36   -7.76   -0.22
#  18   -8.11   -0.53    0.02    3.63   -0.38    0.00    0.00      -5.37   18.98   -2.01
#  19    3.49   -0.66    0.06   -1.69   -0.09    0.00    0.00       1.10   -7.99   -0.43
#  20   -3.54   -0.98    0.20    1.98   -0.17    0.00    0.00      -2.50    7.82   -0.68
#  21    5.64   -1.25    0.24   -5.93    0.53    0.00    0.00      -0.77  -18.30    1.64
#  22   -2.78   -1.52    0.50    4.07   -0.21    0.00    0.00       0.07   12.67   -0.64
#  23    1.23   -1.45    0.50   -2.73    0.09    0.00    0.00      -2.36   -9.89    0.33
#  24    0.81   -1.41    0.18   -0.88   -0.15    0.00    0.00      -1.45   -2.44   -0.41
#  25    0.44   -1.55    0.21   -0.44   -0.18    0.00    0.00      -1.51   -1.07   -0.44
#  26    0.65   -1.57    0.19   -1.04   -0.25    0.00    0.00      -2.03   -1.94   -0.47
#  27    0.98   -1.93    0.57   -1.23   -0.24    0.00    0.00      -1.86   -2.31   -0.46
#  28   -1.35   -1.98    0.68   -0.03   -0.17    0.00    0.00      -2.85   -0.06   -0.34
#  29    2.46   -1.46    0.35   -0.92   -0.28    0.00    0.00       0.15   -1.57   -0.48
#  30    0.97   -1.54    0.24   -0.82   -0.20    0.00    0.00      -1.35   -1.90   -0.45
#  31    2.49   -0.90    0.08   -2.29   -0.12    0.00    0.00      -0.75   -7.65   -0.41
#  32   -3.19   -0.66    0.02    1.88   -0.24    0.00    0.00      -2.19    7.50   -0.97
#  33    9.23   -0.54    0.01   -4.05    0.20    0.00    0.00       4.86  -19.30    0.96
#  34   -7.34   -0.01    0.00    2.23    0.05    0.00    0.00      -5.07   19.99    0.41
#  35   -1.71   -0.06    0.00    0.18   -0.01    0.00    0.00      -1.60    3.25   -0.21
#  36   -0.82   -0.03    0.00    0.20   -0.01    0.00    0.00      -0.65    6.96   -0.28
#  37   -0.71   -0.02    0.00    0.20   -0.01    0.00    0.00      -0.54    6.87   -0.22
#  38   -2.46   -0.09    0.00    0.75   -0.02    0.00    0.00      -1.82    8.44   -0.20
#  39   -1.16   -0.09    0.01    0.77   -0.03    0.00    0.00      -0.50    8.51   -0.28
#  40   -0.33   -0.06    0.00    0.49   -0.02    0.00    0.00       0.08    6.90   -0.28
#  41   -0.32   -0.10    0.00    0.19   -0.02    0.00    0.00      -0.25    2.21   -0.28
#  42   -0.37   -0.40    0.10    0.22   -0.10    0.00    0.00      -0.56    0.61   -0.28
#  43  -11.65   -0.17    0.04    4.23    0.57    0.00    0.00      -6.99    9.11    1.22
#  44   -2.95   -0.35    0.10    1.66   -0.07    0.00    0.00      -1.61    6.27   -0.28
#  45   -0.98   -0.05    0.00    0.43   -0.01    0.00    0.00      -0.61    9.26   -0.28
#  46   -2.29   -0.13    0.01    0.65   -0.04    0.00    0.00      -1.79    4.79   -0.28
#  47   -3.39   -0.24    0.04    1.30   -0.04    0.00    0.00      -2.34    6.39   -0.22
#  48   -4.79   -1.19    2.89    1.41   -0.06    0.00    0.00      -1.74    5.01   -0.20
#  49   -2.93   -0.30    0.06    1.42   -0.07    0.00    0.00      -1.83    5.44   -0.28
#  50   -0.30   -0.06    0.00    0.35   -0.01    0.00    0.00      -0.03    5.14   -0.20
#  51   -0.55   -0.04    0.00    0.22   -0.01    0.00    0.00      -0.38    5.41   -0.28
#  52   -0.29   -0.02    0.00    0.17   -0.01    0.00    0.00      -0.14    6.52   -0.22
#  53   -0.66   -0.04    0.00    0.17   -0.01    0.00    0.00      -0.54    4.73   -0.28
#  54   -2.54   -0.11    0.00    1.01   -0.02    0.00    0.00      -1.66    9.31   -0.20
#  55   -4.75   -0.02    0.00    3.76    0.12    0.00    0.00      -0.88   15.01    0.46
#  56   -0.34   -0.38    0.08    2.25   -0.07    0.00    0.00       1.55    7.54   -0.22
#  57   -1.26   -0.33    0.03    2.23   -0.13    0.00    0.00       0.53    4.74   -0.28
#  58   -1.20   -0.46    0.14    0.99   -0.14    0.00    0.00      -0.67    1.99   -0.28
#  59   -2.22   -0.25    0.01    0.33   -0.07    0.00    0.00      -2.20    1.21   -0.27
#  60   -3.02   -0.23    0.01    0.64   -0.05    0.00    0.00      -2.64    2.57   -0.22
#  61   -4.78   -0.14    0.00    1.23   -0.04    0.00    0.00      -3.72    9.35   -0.28

@<TRIPOS>MOLECULE
          T527683        24
   61    64     0     0     0



@<TRIPOS>ATOM
      1 C1          7.6371    -9.0076    89.0728 C.3        1          -0.0598
      2 N1          6.7037    -8.3368    88.1579 N.4        1          -0.3829
      3 H1          6.3160    -9.0132    87.5175 H          1           0.4236
      4 C2          7.4192    -7.3005    87.4015 C.3        1           0.0409
      5 C3          6.4618    -6.6123    86.4631 C.ar       1          -0.1494
      6 C4          5.5744    -7.3600    85.7106 C.ar       1          -0.1069
      7 C5          4.6947    -6.7315    84.8492 C.ar       1          -0.0919
      8 C6          4.6997    -5.3544    84.7379 C.ar       1          -0.1089
      9 C7          5.5887    -4.6022    85.4916 C.ar       1           0.1214
     10 O1          5.5957    -3.2475    85.3840 O.3        1          -0.4910
     11 C8          6.4673    -5.2350    86.3594 C.ar       1          -0.1259
     12 C9          5.6195    -7.7175    88.9318 C.3        1           0.0242
     13 C10         6.2079    -6.6904    89.9019 C.3        1          -0.1634
     14 C11         5.0718    -6.0220    90.6825 C.3        1           0.1088
     15 N2          4.2625    -7.0657    91.3265 N.pl3      1          -0.6075
     16 C12         3.7231    -8.1529    90.4982 C.3        1           0.1194
     17 C13         4.8744    -8.7973    89.7197 C.3        1          -0.1659
     18 C14         4.0125    -7.0255    92.6934 C.ar       1           0.4621
     19 C15         4.8891    -7.6498    93.5713 C.ar       1          -0.2424
     20 C16         4.6260    -7.6008    94.9360 C.ar       1           0.3195
     21 N3          5.4813    -8.2142    95.8511 N.am       1          -0.6646
     22 C17         6.1779    -9.3106    95.4922 C.2        1           0.5761
     23 O2          6.0610    -9.7649    94.3708 O.2        1          -0.4848
     24 C18         7.0843    -9.9609    96.4622 C.ar       1          -0.1296
     25 C19         7.3632   -11.3246    96.3553 C.ar       1          -0.0949
     26 C20         8.2096   -11.9266    97.2630 C.ar       1          -0.0908
     27 C21         8.7826   -11.1825    98.2789 C.ar       1          -0.1075
     28 C22         8.5104    -9.8286    98.3920 C.ar       1           0.1049
     29 F1          9.0731    -9.1083    99.3867 F          1          -0.1225
     30 C23         7.6690    -9.2129    97.4849 C.ar       1          -0.0853
     31 C24         3.4845    -6.9218    95.3674 C.ar       1          -0.1722
     32 C25         2.6625    -6.3273    94.4353 C.ar       1           0.1714
     33 N4          2.9431    -6.3876    93.1461 N.ar       1          -0.5162
     34 H2          2.3481    -5.9561    92.5132 H          1           0.4378
     35 H3          8.0559    -8.2769    89.7646 H          1           0.1318
     36 H4          7.1062    -9.7766    89.6339 H          1           0.1276
     37 H5          8.4416    -9.4669    88.4986 H          1           0.1252
     38 H6          7.8382    -6.5698    88.0934 H          1           0.1384
     39 H7          8.2236    -7.7600    86.8272 H          1           0.1413
     40 H8          5.5691    -8.4365    85.7960 H          1           0.1352
     41 H9          4.0029    -7.3177    84.2624 H          1           0.1442
     42 H10         4.0123    -4.8640    84.0645 H          1           0.1454
     43 H11         6.2491    -2.8116    85.9478 H          1           0.4022
     44 H12         7.1574    -4.6512    86.9506 H          1           0.1355
     45 H13         4.9269    -7.2202    88.2529 H          1           0.1477
     46 H14         6.8817    -7.1910    90.5972 H          1           0.0984
     47 H15         6.7582    -5.9345    89.3417 H          1           0.1184
     48 H16         5.4898    -5.3624    91.4431 H          1           0.0959
     49 H17         4.4484    -5.4458    89.9988 H          1           0.1119
     50 H18         3.2512    -8.8993    91.1372 H          1           0.1172
     51 H19         2.9896    -7.7505    89.7997 H          1           0.1069
     52 H20         4.4756    -9.5411    89.0299 H          1           0.1180
     53 H21         5.5607    -9.2781    90.4168 H          1           0.0995
     54 H22         5.7619    -8.1659    93.1996 H          1           0.1817
     55 H23         5.5747    -7.8517    96.7462 H          1           0.4315
     56 H24         6.9168   -11.9076    95.5633 H          1           0.1319
     57 H25         8.4252   -12.9816    97.1807 H          1           0.1497
     58 H26         9.4445   -11.6589    98.9869 H          1           0.1523
     59 H27         7.4609    -8.1566    97.5700 H          1           0.1547
     60 H28         3.2486    -6.8638    96.4197 H          1           0.1955
     61 H29         1.7783    -5.8012    94.7637 H          1           0.2161
@<TRIPOS>BOND
     1    1    2 1
     2    1   35 1
     3    1   36 1
     4    1   37 1
     5    2    3 1
     6    2    4 1
     7    2   12 1
     8    4    5 1
     9    4   38 1
    10    4   39 1
    11    5   11 ar
    12    5    6 ar
    13    6    7 ar
    14    6   40 1
    15    7    8 ar
    16    7   41 1
    17    8    9 ar
    18    8   42 1
    19    9   10 1
    20    9   11 ar
    21   10   43 1
    22   11   44 1
    23   12   17 1
    24   12   13 1
    25   12   45 1
    26   13   14 1
    27   13   46 1
    28   13   47 1
    29   14   15 1
    30   14   48 1
    31   14   49 1
    32   15   16 1
    33   15   18 1
    34   16   17 1
    35   16   50 1
    36   16   51 1
    37   17   52 1
    38   17   53 1
    39   18   33 ar
    40   18   19 ar
    41   19   20 ar
    42   19   54 1
    43   20   21 1
    44   20   31 ar
    45   21   22 am
    46   21   55 1
    47   22   23 2
    48   22   24 1
    49   24   30 ar
    50   24   25 ar
    51   25   26 ar
    52   25   56 1
    53   26   27 ar
    54   26   57 1
    55   27   28 ar
    56   27   58 1
    57   28   29 1
    58   28   30 ar
    59   30   59 1
    60   31   32 ar
    61   31   60 1
    62   32   33 ar
    63   32   61 1
    64   33   34 1
##########                 Name:              T528308
##########          Protonation:                   37
##########               SMILES:   c1cc(cc(c1)c2ccc(cc2)c3[nH]c4cc(ccc4n3)C(F)(F)F)C[NH2+]CCN5CC[C@H](C5)[NH3+]
##########            Long Name:   3-[4-[6-(trifluoromethyl)-1H-benzimidazol-2-yl]phenyl]phenyl]methyl]ammonium
##########          FlexRecCode: 1
##########               Number:                  138
##########   Ligand Source File: /raidb/db2/rgc/tcams/tcams-0000468.db2.gz
##########           GlobalRank: 465
##########                 Rank:                    1
##########               Setnum:                  382
##########             Matchnum:                 2600
##########                Cloud:                    1
##########        Electrostatic:           -74.727760
##########        Van der Waals:           -18.277580
##########  Ligand Polar Desolv:            30.693426
########## Ligand Apolar Desolv:            -1.384049
##########      Internal Energy:             0.000000
##########      Receptor Energy: 0.0
########## Receptor Desolvation:             0.000000
########## Receptor Hydrophobic:             0.000000
##########         Total Energy: -63.7
##########        Ligand Charge:             2.000000
##########            Arbitrary:    +999.9990
##########     heavy atom count:   35
##########           pose count:    1
##########        Ligand Energy:             0.000000
# num electro vdwattr vdwrepu polsolv apolsol rdesolv rhydroe totalscore fullpol fullapo
#   1   24.84   -4.04    7.15  -13.06    0.33    0.00    0.00      15.22  -29.36    0.75
#   2  -13.40   -0.04    0.00    8.95    0.23    0.00    0.00      -4.26   22.90    0.59
#   3  -21.74   -0.20    0.10    9.82    0.25    0.00    0.00     -11.78   22.83    0.57
#   4  -21.89   -0.15    0.03   11.40    0.30    0.00    0.00     -10.31   22.50    0.59
#   5   -0.29   -0.96    0.28    0.80   -0.12    0.00    0.00      -0.29    2.46   -0.38
#   6    2.73   -0.86    0.14   -2.41   -0.10    0.00    0.00      -0.50   -6.78   -0.27
#   7   -0.50   -0.63    0.05    0.29   -0.17    0.00    0.00      -0.96    0.82   -0.47
#   8    9.49   -0.63    0.02   -5.45    0.85    0.00    0.00       4.28  -22.17    3.46
#   9   -0.45   -0.59    0.02    0.10   -0.12    0.00    0.00      -1.02    0.32   -0.36
#  10    0.34   -1.11    0.24    0.18   -0.16    0.00    0.00      -0.50    0.48   -0.41
#  11   16.44   -1.10    0.37   -6.04    0.19    0.00    0.00       9.86  -22.62    0.73
#  12   -8.99   -0.01    0.00    2.73    0.07    0.00    0.00      -6.19   21.89    0.57
#  13  -18.92   -0.05    0.00    6.05    0.16    0.00    0.00     -12.76   22.23    0.57
#  14   -1.33   -0.59    0.11    0.76   -0.10    0.00    0.00      -1.14    3.22   -0.42
#  15    3.13   -0.58    0.04   -0.78   -0.08    0.00    0.00       1.74   -3.73   -0.37
#  16    2.03   -0.88    0.14   -0.53   -0.10    0.00    0.00       0.67   -2.26   -0.42
#  17    0.39   -0.45    0.03   -0.42   -0.07    0.00    0.00      -0.51   -2.57   -0.41
#  18    0.55   -0.24    0.01   -0.32   -0.05    0.00    0.00      -0.05   -3.07   -0.44
#  19    0.44   -0.46    0.08   -0.56   -0.06    0.00    0.00      -0.56   -4.24   -0.47
#  20    0.66   -0.60    0.09   -0.38   -0.08    0.00    0.00      -0.30   -2.24   -0.46
#  21    0.67   -0.50    0.05   -0.02   -0.07    0.00    0.00       0.13   -0.13   -0.41
#  22    0.72   -0.32    0.02   -0.23   -0.05    0.00    0.00       0.15   -2.08   -0.44
#  23    0.27   -0.25    0.01   -0.12   -0.04    0.00    0.00      -0.14   -1.32   -0.46
#  24    0.06   -0.35    0.01   -0.19   -0.05    0.00    0.00      -0.53   -1.44   -0.41
#  25    1.37   -0.67    0.05   -0.37   -0.11    0.00    0.00       0.26   -1.55   -0.46
#  26    1.85   -0.82    0.10   -0.58   -0.10    0.00    0.00       0.46   -2.52   -0.44
#  27   -0.67   -0.38    0.01    0.52   -0.31    0.00    0.00      -0.84    3.50   -2.12
#  28    0.43   -0.27    0.01   -0.45    0.23    0.00    0.00      -0.05   -4.01    2.03
#  29   -0.06   -0.33    0.01    0.03   -0.11    0.00    0.00      -0.47    0.21   -0.79
#  30    0.02   -0.22    0.00   -0.06   -0.04    0.00    0.00      -0.30   -0.63   -0.47
#  31    0.04   -0.27    0.01   -0.07   -0.05    0.00    0.00      -0.35   -0.70   -0.44
#  32    0.18   -0.74    0.07   -0.34   -0.09    0.00    0.00      -0.92   -1.37   -0.37
#  33    0.10   -1.81    0.89   -0.11   -0.14    0.00    0.00      -1.07   -0.37   -0.45
#  34   -0.09   -0.90    0.16    0.02   -0.18    0.00    0.00      -0.99    0.08   -0.78
#  35    2.22   -0.95    0.17   -1.48    0.28    0.00    0.00       0.24   -5.96    1.14
#  36   -0.50   -0.78    0.12    0.89   -0.02    0.00    0.00      -0.29    2.94   -0.07
#  37    0.06   -0.25    0.01   -0.17   -0.08    0.00    0.00      -0.42   -0.97   -0.44
#  38    0.16   -1.77    1.00   -0.36   -0.18    0.00    0.00      -1.15   -0.96   -0.47
#  39    0.25   -1.39    0.75   -0.38   -0.19    0.00    0.00      -0.96   -0.93   -0.47
#  40   -0.55   -0.57    0.03    0.19   -0.15    0.00    0.00      -1.05    0.61   -0.47
#  41   -3.26   -0.35    0.25    1.25   -0.06    0.00    0.00      -2.17    5.86   -0.28
#  42   -2.10   -0.58    0.35    2.05   -0.11    0.00    0.00      -0.39    5.06   -0.27
#  43   -0.67   -0.16    0.01    0.52   -0.05    0.00    0.00      -0.36    2.66   -0.28
#  44   -1.93   -0.26    0.04    1.02   -0.07    0.00    0.00      -1.20    3.68   -0.24
#  45   -0.69   -0.28    0.09    0.32   -0.06    0.00    0.00      -0.62    1.52   -0.28
#  46   -2.84   -0.29    0.03    1.29   -0.08    0.00    0.00      -1.88    4.78   -0.28
#  47   -1.45   -0.14    0.00    0.49   -0.03    0.00    0.00      -1.12    4.26   -0.27
#  48   -4.26   -0.60    0.48    2.26   -0.08    0.00    0.00      -2.20    6.53   -0.24
#  49   -6.60   -0.52    0.23    2.36   -0.11    0.00    0.00      -4.65    6.10   -0.28
#  50   -5.16   -0.34    0.19    1.66   -0.06    0.00    0.00      -3.71    7.88   -0.28
#  51   -2.45   -0.11    0.00    0.80   -0.03    0.00    0.00      -1.78    7.56   -0.28
#  52   -4.74   -0.44    0.23    1.87   -0.06    0.00    0.00      -3.14    6.77   -0.22
#  53   -0.71   -0.03    0.00    0.05   -0.01    0.00    0.00      -0.69    1.56   -0.22
#  54    0.00   -0.16    0.06    0.26   -0.03    0.00    0.00       0.13    2.44   -0.28
#  55   -0.12   -0.23    0.07    1.04   -0.04    0.00    0.00       0.72    6.92   -0.28
#  56   -0.66   -0.04    0.00    0.29   -0.01    0.00    0.00      -0.43    6.01   -0.21
#  57   -0.27   -0.03    0.00    0.06   -0.01    0.00    0.00      -0.25    1.92   -0.27
#  58   -2.60   -0.20    0.02    0.45   -0.05    0.00    0.00      -2.38    2.14   -0.24
#  59   -3.84   -0.31    0.09    0.64   -0.05    0.00    0.00      -3.46    2.68   -0.21
#  60    0.00   -0.03    0.00    0.05   -0.01    0.00    0.00       0.01    1.71   -0.28
#  61   -0.04   -0.03    0.00    0.05   -0.01    0.00    0.00      -0.03    1.56   -0.24
#  62   -0.42   -1.10    1.55    0.66   -0.11    0.00    0.00       0.57    1.66   -0.28
#  63   -6.23   -0.03    0.00    1.43    0.12    0.00    0.00      -4.70    6.22    0.53
#  64   -1.93   -0.20    0.02    0.66   -0.05    0.00    0.00      -1.49    3.58   -0.28
#  65   -1.85   -0.25    0.03    1.31   -0.07    0.00    0.00      -0.83    4.98   -0.26

@<TRIPOS>MOLECULE
          T528308        37
   65    69     0     0     0



@<TRIPOS>ATOM
      1 N1         -1.4224    -5.5945    94.8774 N.4        1          -0.6307
      2 H1         -1.7055    -4.6560    94.6384 H          1           0.4431
      3 H2         -0.9315    -5.5837    95.7588 H          1           0.4337
      4 H3         -2.2387    -6.1827    94.9543 H          1           0.4459
      5 C1         -0.5367    -6.1206    93.8301 C.3        1           0.0118
      6 C2         -0.0036    -7.4988    94.2247 C.3        1          -0.1618
      7 C3          1.3399    -7.1312    94.8865 C.3        1           0.0297
      8 N2          1.8489    -6.1183    93.9395 N.3        1          -0.5107
      9 C4          2.9639    -5.3626    94.5259 C.3        1           0.0181
     10 C5          3.7753    -4.7021    93.4096 C.3        1          -0.0098
     11 N3          4.3040    -5.7366    92.5107 N.4        1          -0.5082
     12 H4          3.5381    -6.2556    92.1078 H          1           0.4301
     13 H5          4.8391    -5.3011    91.7745 H          1           0.4271
     14 C6          5.1687    -6.6497    93.2700 C.3        1           0.0495
     15 C7          5.7111    -7.7111    92.3478 C.ar       1          -0.1664
     16 C8          6.9063    -7.5056    91.6887 C.ar       1          -0.0880
     17 C9          7.4066    -8.4881    90.8362 C.ar       1          -0.0282
     18 C10         6.6960    -9.6737    90.6544 C.ar       1          -0.0742
     19 C11         5.5022    -9.8681    91.3187 C.ar       1          -0.1062
     20 C12         5.0132    -8.8916    92.1680 C.ar       1          -0.0940
     21 C13         8.6899    -8.2731    90.1248 C.ar       1          -0.0520
     22 C14         9.4973    -9.3629    89.7991 C.ar       1          -0.1058
     23 C15        10.6890    -9.1642    89.1385 C.ar       1          -0.0647
     24 C16        11.0891    -7.8710    88.7946 C.ar       1          -0.0119
     25 C17        10.2799    -6.7806    89.1212 C.ar       1          -0.0940
     26 C18         9.0859    -6.9818    89.7767 C.ar       1          -0.0989
     27 C19        12.3685    -7.6567    88.0861 C.2        1           0.3256
     28 N4         13.4291    -8.4189    88.1975 N.2        1          -0.4722
     29 C20        14.4217    -7.9356    87.4121 C.ar       1           0.0769
     30 C21        15.7335    -8.3494    87.1575 C.ar       1          -0.0581
     31 C22        16.5161    -7.6378    86.2933 C.ar       1          -0.0838
     32 C23        16.0239    -6.5041    85.6620 C.ar       1          -0.1568
     33 C24        14.7340    -6.0769    85.8974 C.ar       1          -0.0507
     34 C25        13.9229    -6.7869    86.7719 C.ar       1           0.0499
     35 N5         12.6220    -6.6355    87.2100 N.pl3      1          -0.5885
     36 C26        16.9056    -5.7339    84.7130 C.3        1           0.5118
     37 F1         18.1585    -6.3514    84.6354 F          1          -0.1710
     38 F2         16.3172    -5.7116    83.4440 F          1          -0.1742
     39 F3         17.0594    -4.4236    85.1787 F          1          -0.1737
     40 C27         0.6998    -5.2509    93.6962 C.3        1           0.0265
     41 H6         -1.0667    -6.1774    92.8793 H          1           0.1654
     42 H7         -0.6694    -7.9862    94.9369 H          1           0.0950
     43 H8          0.1521    -8.1240    93.3455 H          1           0.1157
     44 H9          1.1855    -6.7011    95.8761 H          1           0.0791
     45 H10         2.0039    -7.9943    94.9327 H          1           0.1093
     46 H11         2.5715    -4.5951    95.1930 H          1           0.1063
     47 H12         3.6054    -6.0401    95.0893 H          1           0.0664
     48 H13         3.1336    -4.0246    92.8462 H          1           0.1335
     49 H14         4.6026    -4.1413    93.8447 H          1           0.1468
     50 H15         5.9959    -6.0891    93.7052 H          1           0.1405
     51 H16         4.5906    -7.1203    94.0653 H          1           0.1419
     52 H17         7.4525    -6.5852    91.8330 H          1           0.1361
     53 H18         7.0788   -10.4383    89.9948 H          1           0.1405
     54 H19         4.9506   -10.7859    91.1784 H          1           0.1408
     55 H20         4.0806    -9.0499    92.6893 H          1           0.1320
     56 H21         9.1880   -10.3627    90.0654 H          1           0.1307
     57 H22        11.3143   -10.0079    88.8868 H          1           0.1475
     58 H23        10.5887    -5.7802    88.8558 H          1           0.1304
     59 H24         8.4580    -6.1390    90.0253 H          1           0.1362
     60 H25        16.1270    -9.2298    87.6437 H          1           0.1461
     61 H26        17.5283    -7.9604    86.0994 H          1           0.1509
     62 H27        14.3564    -5.1940    85.4032 H          1           0.1397
     63 H28        12.0041    -5.9353    86.9477 H          1           0.4276
     64 H29         0.7544    -4.8306    92.6919 H          1           0.1210
     65 H30         0.6742    -4.4483    94.4331 H          1           0.0752
@<TRIPOS>BOND
     1    1    2 1
     2    1    3 1
     3    1    4 1
     4    1    5 1
     5    5   40 1
     6    5    6 1
     7    5   41 1
     8    6    7 1
     9    6   42 1
    10    6   43 1
    11    7    8 1
    12    7   44 1
    13    7   45 1
    14    8    9 1
    15    8   40 1
    16    9   10 1
    17    9   46 1
    18    9   47 1
    19   10   11 1
    20   10   48 1
    21   10   49 1
    22   11   12 1
    23   11   13 1
    24   11   14 1
    25   14   15 1
    26   14   50 1
    27   14   51 1
    28   15   20 ar
    29   15   16 ar
    30   16   17 ar
    31   16   52 1
    32   17   18 ar
    33   17   21 1
    34   18   19 ar
    35   18   53 1
    36   19   20 ar
    37   19   54 1
    38   20   55 1
    39   21   26 ar
    40   21   22 ar
    41   22   23 ar
    42   22   56 1
    43   23   24 ar
    44   23   57 1
    45   24   25 ar
    46   24   27 1
    47   25   26 ar
    48   25   58 1
    49   26   59 1
    50   27   35 1
    51   27   28 2
    52   28   29 1
    53   29   34 ar
    54   29   30 ar
    55   30   31 ar
    56   30   60 1
    57   31   32 ar
    58   31   61 1
    59   32   33 ar
    60   32   36 1
    61   33   34 ar
    62   33   62 1
    63   34   35 1
    64   35   63 1
    65   36   37 1
    66   36   38 1
    67   36   39 1
    68   40   64 1
    69   40   65 1
##########                 Name:              T533847
##########          Protonation:                   49
##########               SMILES:   C[NH+](C)[C@H](CNC(=O)c1cc(c(o1)c2ccc(c(c2)O)Cl)c3ccncc3)c4ccccc4
##########            Long Name:   enyl)-4-(4-pyridyl)furan-2-carbonyl]amino]-1-phenyl-ethyl]-dimethyl-ammonium
##########          FlexRecCode: 1
##########               Number:                  242
##########   Ligand Source File: /raidb/db2/rgc/tcams/tcams-0001168.db2.gz
##########           GlobalRank: 465
##########                 Rank:                    1
##########               Setnum:                  161
##########             Matchnum:                 2398
##########                Cloud:                    1
##########        Electrostatic:           -44.931450
##########        Van der Waals:           -25.090952
##########  Ligand Polar Desolv:             8.715365
########## Ligand Apolar Desolv:            -2.397897
##########      Internal Energy:             0.000000
##########      Receptor Energy: 0.0
########## Receptor Desolvation:             0.000000
########## Receptor Hydrophobic:             0.000000
##########         Total Energy: -63.7
##########        Ligand Charge:             1.000000
##########            Arbitrary:    +999.9990
##########     heavy atom count:   33
##########           pose count:    1
##########        Ligand Energy:             0.000000
# num electro vdwattr vdwrepu polsolv apolsol rdesolv rhydroe totalscore fullpol fullapo
#   1    2.14   -2.13    0.84   -0.85   -0.23    0.00    0.00      -0.23   -1.67   -0.46
#   2   15.00   -1.62    0.97   -4.71    0.11    0.00    0.00       9.74  -11.84    0.28
#   3  -22.39   -0.09    0.02    4.16    0.12    0.00    0.00     -18.19   15.56    0.44
#   4    1.70   -1.13    0.22   -0.97   -0.21    0.00    0.00      -0.40   -2.11   -0.46
#   5   -1.66   -0.49    0.03    0.80   -0.04    0.00    0.00      -1.37    3.13   -0.15
#   6   -2.52   -0.50    0.04    0.48   -0.09    0.00    0.00      -2.58    2.07   -0.37
#   7   20.04   -0.97    0.23   -3.12    0.49    0.00    0.00      16.67  -14.32    2.23
#   8  -11.17   -0.53    0.03    1.72   -0.13    0.00    0.00     -10.08    8.77   -0.65
#   9    4.56   -0.59    0.06   -1.17    0.08    0.00    0.00       2.93   -5.90    0.41
#  10    1.49   -0.56    0.04   -0.15   -0.06    0.00    0.00       0.77   -0.75   -0.32
#  11    0.82   -0.62    0.11   -0.21   -0.08    0.00    0.00       0.02   -1.19   -0.49
#  12    1.23   -0.70    0.21   -0.20   -0.06    0.00    0.00       0.46   -1.30   -0.40
#  13   -1.32   -0.57    0.06    0.18   -0.06    0.00    0.00      -1.70    0.98   -0.31
#  14    3.11   -0.56    0.04   -0.34    0.06    0.00    0.00       2.33   -1.54    0.29
#  15    0.23   -0.43    0.02   -0.02   -0.06    0.00    0.00      -0.26   -0.12   -0.38
#  16    0.45   -0.22    0.00   -0.07   -0.04    0.00    0.00       0.13   -0.79   -0.45
#  17    0.21   -0.31    0.01   -0.13   -0.06    0.00    0.00      -0.29   -0.94   -0.46
#  18    0.20   -0.62    0.04   -0.12   -0.06    0.00    0.00      -0.56   -0.57   -0.29
#  19    0.11   -3.84    3.54   -0.13   -0.27    0.00    0.00      -0.60   -0.46   -0.97
#  20   -1.84   -0.88    0.07    0.19   -0.10    0.00    0.00      -2.56    0.61   -0.31
#  21   10.40   -1.80    0.42   -1.18    0.49    0.00    0.00       8.34   -2.74    1.14
#  22    1.51   -0.91    0.11   -0.25   -0.12    0.00    0.00       0.35   -0.84   -0.41
#  23   -0.08   -0.63    0.19    0.02   -0.05    0.00    0.00      -0.54    0.14   -0.32
#  24    0.43   -1.29    1.14   -0.17   -0.08    0.00    0.00       0.03   -0.89   -0.43
#  25    0.12   -0.81    0.15    0.04   -0.20    0.00    0.00      -0.69    0.20   -0.97
#  26   -1.11   -1.15    0.58   -0.16    0.36    0.00    0.00      -1.48   -0.89    2.05
#  27   -0.07   -0.55    0.09    0.04   -0.15    0.00    0.00      -0.64    0.25   -0.97
#  28    0.54   -0.30    0.01   -0.12   -0.06    0.00    0.00       0.08   -0.95   -0.46
#  29    3.35   -0.82    0.03   -0.81   -0.07    0.00    0.00       1.68   -2.67   -0.23
#  30    2.67   -1.12    0.07   -0.96   -0.16    0.00    0.00       0.50   -2.35   -0.38
#  31    3.02   -2.28    0.85   -1.26   -0.23    0.00    0.00       0.09   -2.59   -0.47
#  32    2.81   -2.89    1.74   -1.08   -0.22    0.00    0.00       0.36   -2.30   -0.47
#  33    2.47   -1.57    0.28   -1.02   -0.19    0.00    0.00      -0.02   -2.52   -0.47
#  34    2.06   -1.14    0.12   -0.68   -0.14    0.00    0.00       0.23   -2.04   -0.42
#  35   -4.49   -0.58    0.19    2.28   -0.12    0.00    0.00      -2.72    5.12   -0.28
#  36   -6.10   -0.93    0.40    1.60   -0.13    0.00    0.00      -5.17    2.76   -0.22
#  37   -5.78   -0.97    0.87    2.08   -0.13    0.00    0.00      -3.92    4.61   -0.28
#  38   -3.07   -0.20    0.01    0.94   -0.05    0.00    0.00      -2.37    4.89   -0.28
#  39   -4.35   -0.56    0.21    1.97   -0.10    0.00    0.00      -2.83    4.11   -0.21
#  40   -3.53   -0.43    0.13    1.48   -0.08    0.00    0.00      -2.44    5.15   -0.28
#  41   -2.53   -0.11    0.00    0.72   -0.03    0.00    0.00      -1.95    6.94   -0.27
#  42   -1.35   -0.07    0.00    0.15   -0.02    0.00    0.00      -1.29    2.32   -0.28
#  43   -2.77   -0.27    0.05    0.93   -0.05    0.00    0.00      -2.12    3.91   -0.22
#  44  -14.83   -0.03    0.00    1.99    0.10    0.00    0.00     -12.77    9.81    0.49
#  45   -1.26   -0.11    0.01    0.14   -0.03    0.00    0.00      -1.25    1.38   -0.28
#  46   -0.53   -0.03    0.00    0.10   -0.01    0.00    0.00      -0.46    3.30   -0.28
#  47   -0.30   -0.06    0.00    0.11   -0.01    0.00    0.00      -0.26    2.31   -0.28
#  48  -11.03   -0.06    0.01    1.50    0.47    0.00    0.00      -9.12    3.92    1.22
#  49   -2.94   -0.42    0.19    0.24   -0.08    0.00    0.00      -3.02    0.82   -0.27
#  50   -0.49   -0.61    1.10    0.24   -0.05    0.00    0.00       0.19    1.25   -0.28
#  51    0.47   -0.16    0.02    0.12   -0.04    0.00    0.00       0.42    0.86   -0.28
#  52   -0.21   -0.10    0.01    0.10   -0.03    0.00    0.00      -0.22    1.10   -0.28
#  53   -0.50   -0.04    0.00    0.05   -0.01    0.00    0.00      -0.50    1.47   -0.28
#  54   -2.14   -0.22    0.01    1.25   -0.06    0.00    0.00      -1.15    5.22   -0.23
#  55   -4.66   -0.76    0.53    0.95   -0.15    0.00    0.00      -4.10    1.81   -0.28
#  56   -5.13   -1.24    1.85    0.43   -0.13    0.00    0.00      -4.23    0.91   -0.28
#  57   -3.17   -0.29    0.03    0.48   -0.09    0.00    0.00      -3.03    1.58   -0.28
#  58   -2.75   -0.33    0.10    1.09   -0.07    0.00    0.00      -1.96    4.30   -0.28

@<TRIPOS>MOLECULE
          T533847        49
   58    61     0     0     0



@<TRIPOS>ATOM
      1 C1          4.4443    -3.6681    94.0769 C.3        1          -0.0492
      2 N1          5.0070    -5.0210    94.1821 N.4        1          -0.3809
      3 H1          5.7589    -5.1251    93.5174 H          1           0.4258
      4 C2          5.5223    -5.2326    95.5415 C.3        1          -0.0557
      5 C3          3.9596    -6.0105    93.8960 C.3        1           0.0663
      6 C4          3.7740    -6.1336    92.3822 C.3        1           0.1050
      7 N2          5.0330    -6.5640    91.7693 N.am       1          -0.7206
      8 C5          5.5890    -7.7389    92.1258 C.2        1           0.6185
      9 O1          5.0451    -8.4422    92.9570 O.2        1          -0.5011
     10 C6          6.8489    -8.1696    91.5125 C.2        1          -0.0883
     11 C7          7.5059    -9.3341    91.7831 C.2        1          -0.0772
     12 C8          8.6641    -9.3478    90.9791 C.2        1          -0.1290
     13 C9          8.6501    -8.1678    90.2477 C.2        1           0.0954
     14 O2          7.5452    -7.4819    90.5839 O.3        1          -0.1510
     15 C10         9.6679    -7.7438    89.2683 C.ar       1          -0.0195
     16 C11         9.9241    -8.5268    88.1392 C.ar       1          -0.0874
     17 C12        10.8763    -8.1269    87.2254 C.ar       1          -0.0942
     18 C13        11.5802    -6.9515    87.4223 C.ar       1          -0.0469
     19 Cl1        12.7769    -6.4562    86.2665 Cl         1          -0.0376
     20 C14        11.3322    -6.1661    88.5417 C.ar       1           0.1256
     21 O3         12.0263    -5.0127    88.7295 O.3        1          -0.4793
     22 C15        10.3755    -6.5552    89.4628 C.ar       1          -0.0949
     23 C16         9.6937   -10.4118    90.9257 C.ar       1           0.0154
     24 C17        11.0266   -10.1389    91.2511 C.ar       1          -0.1542
     25 C18        11.9525   -11.1589    91.1884 C.ar       1           0.1089
     26 N3         11.5957   -12.3767    90.8270 N.ar       1          -0.4772
     27 C19        10.3494   -12.6766    90.5128 C.ar       1           0.1069
     28 C20         9.3587   -11.7182    90.5543 C.ar       1          -0.1592
     29 C21         2.6645    -5.5675    94.5265 C.ar       1          -0.1448
     30 C22         2.3582    -5.9508    95.8189 C.ar       1          -0.1199
     31 C23         1.1703    -5.5445    96.3972 C.ar       1          -0.1004
     32 C24         0.2887    -4.7544    95.6832 C.ar       1          -0.0888
     33 C25         0.5955    -4.3702    94.3912 C.ar       1          -0.1010
     34 C26         1.7854    -4.7730    93.8146 C.ar       1          -0.0910
     35 H2          3.6320    -3.5556    94.7950 H          1           0.1295
     36 H3          5.2214    -2.9338    94.2894 H          1           0.1259
     37 H4          4.0621    -3.5110    93.0683 H          1           0.1247
     38 H5          5.9398    -6.2364    95.6194 H          1           0.1264
     39 H6          6.2993    -4.4984    95.7540 H          1           0.1276
     40 H7          4.7100    -5.1201    96.2595 H          1           0.1321
     41 H8          4.2513    -6.9772    94.3061 H          1           0.1505
     42 H9          2.9969    -6.8678    92.1700 H          1           0.0973
     43 H10         3.4822    -5.1666    91.9722 H          1           0.0967
     44 H11         5.4665    -6.0035    91.1069 H          1           0.4111
     45 H12         7.1980   -10.0992    92.4804 H          1           0.1712
     46 H13         9.3769    -9.4447    87.9826 H          1           0.1406
     47 H14        11.0737    -8.7328    86.3535 H          1           0.1482
     48 H15        12.6696    -4.8227    88.0328 H          1           0.3988
     49 H16        10.1790    -5.9436    90.3308 H          1           0.1432
     50 H17        11.3260    -9.1442    91.5464 H          1           0.1336
     51 H18        12.9840   -10.9581    91.4376 H          1           0.1602
     52 H19        10.1013   -13.6869    90.2230 H          1           0.1612
     53 H20         8.3400   -11.9713    90.2999 H          1           0.1372
     54 H21         3.0469    -6.5681    96.3766 H          1           0.1203
     55 H22         0.9306    -5.8445    97.4066 H          1           0.1372
     56 H23        -0.6397    -4.4374    96.1349 H          1           0.1372
     57 H24        -0.0935    -3.7533    93.8334 H          1           0.1381
     58 H25         2.0268    -4.4699    92.8064 H          1           0.1323
@<TRIPOS>BOND
     1    1    2 1
     2    1   35 1
     3    1   36 1
     4    1   37 1
     5    2    3 1
     6    2    4 1
     7    2    5 1
     8    4   38 1
     9    4   39 1
    10    4   40 1
    11    5    6 1
    12    5   29 1
    13    5   41 1
    14    6    7 1
    15    6   42 1
    16    6   43 1
    17    7    8 am
    18    7   44 1
    19    8    9 2
    20    8   10 1
    21   10   14 1
    22   10   11 2
    23   11   12 1
    24   11   45 1
    25   12   13 2
    26   12   23 1
    27   13   14 1
    28   13   15 1
    29   15   22 ar
    30   15   16 ar
    31   16   17 ar
    32   16   46 1
    33   17   18 ar
    34   17   47 1
    35   18   19 1
    36   18   20 ar
    37   20   21 1
    38   20   22 ar
    39   21   48 1
    40   22   49 1
    41   23   28 ar
    42   23   24 ar
    43   24   25 ar
    44   24   50 1
    45   25   26 ar
    46   25   51 1
    47   26   27 ar
    48   27   28 ar
    49   27   52 1
    50   28   53 1
    51   29   34 ar
    52   29   30 ar
    53   30   31 ar
    54   30   54 1
    55   31   32 ar
    56   31   55 1
    57   32   33 ar
    58   32   56 1
    59   33   34 ar
    60   33   57 1
    61   34   58 1
##########                 Name:              T537774
##########          Protonation:                   99
##########               SMILES:   cc2c(c1)c(c(s2)C(=O)NC[C@@H]3CCC[NH+](C3)CCCCCNC(=O)/C=C/c4ccc(c(c4)Cl)Cl)Cl
##########            Long Name:   -enoyl]amino]pentyl]piperidin-1-ium-3-yl]methyl]benzothiophene-2-carboxamide
##########          FlexRecCode: 1
##########               Number:                   50
##########   Ligand Source File: /raidb/db2/rgc/tcams/tcams-0001664.db2.gz
##########           GlobalRank: 466
##########                 Rank:                    1
##########               Setnum:                   19
##########             Matchnum:                  215
##########                Cloud:                    1
##########        Electrostatic:           -27.725540
##########        Van der Waals:           -38.317482
##########  Ligand Polar Desolv:             8.591749
########## Ligand Apolar Desolv:            -6.238753
##########      Internal Energy:             0.000000
##########      Receptor Energy: 0.0
########## Receptor Desolvation:             0.000000
########## Receptor Hydrophobic:             0.000000
##########         Total Energy: -63.69
##########        Ligand Charge:             1.000000
##########            Arbitrary:    +999.9990
##########     heavy atom count:   38
##########           pose count:    1
##########        Ligand Energy:             0.000000
# num electro vdwattr vdwrepu polsolv apolsol rdesolv rhydroe totalscore fullpol fullapo
#   1    0.30   -6.31    2.44   -0.13   -0.56    0.00    0.00      -4.26   -0.21   -0.90
#   2   -0.58   -1.77    0.29   -0.11   -0.16    0.00    0.00      -2.32   -0.21   -0.30
#   3    2.76   -1.36    0.13   -0.64   -0.13    0.00    0.00       0.76   -1.51   -0.31
#   4   -0.50   -2.27    0.37    0.82   -0.28    0.00    0.00      -1.86    2.30   -0.80
#   5    0.60   -1.53    0.27   -0.46   -0.14    0.00    0.00      -1.27   -1.03   -0.32
#   6    0.64   -1.65    0.17   -0.46   -0.26    0.00    0.00      -1.55   -0.83   -0.47
#   7    0.37   -2.80    0.87   -0.40   -0.29    0.00    0.00      -2.25   -0.66   -0.48
#   8    0.69   -3.25    1.83   -0.58   -0.28    0.00    0.00      -1.59   -0.96   -0.47
#   9    0.57   -2.81    1.77   -0.30   -0.26    0.00    0.00      -1.04   -0.53   -0.46
#  10    1.32   -1.92    0.71   -0.35   -0.20    0.00    0.00      -0.44   -0.72   -0.41
#  11  -10.29   -1.47    0.27    2.05   -0.28    0.00    0.00      -9.72    4.78   -0.65
#  12    7.97   -2.66    2.37   -1.08    0.18    0.00    0.00       6.78   -2.23    0.37
#  13   17.45   -1.55    0.23   -4.30    0.93    0.00    0.00      12.77  -10.33    2.23
#  14   -4.37   -1.44    0.37    1.02   -0.19    0.00    0.00      -4.61    2.06   -0.38
#  15    4.17   -0.95    0.16   -1.04   -0.07    0.00    0.00       2.27   -2.54   -0.16
#  16    5.54   -1.79    0.43   -1.86   -0.11    0.00    0.00       2.21   -3.66   -0.22
#  17    4.58   -1.56    0.53   -1.70   -0.11    0.00    0.00       1.73   -3.82   -0.25
#  18    0.34   -0.94    0.12   -0.03   -0.15    0.00    0.00      -0.65   -0.07   -0.37
#  19    7.93   -0.66    0.02   -3.85    0.09    0.00    0.00       3.52  -11.91    0.27
#  20   -7.34   -0.01    0.00    1.52    0.05    0.00    0.00      -5.77   16.60    0.54
#  21    0.21   -0.82    0.07    0.09   -0.15    0.00    0.00      -0.60    0.20   -0.35
#  22    2.90   -0.89    0.14   -1.72   -0.09    0.00    0.00       0.34   -4.18   -0.21
#  23    0.72   -0.75    0.15   -0.95   -0.07    0.00    0.00      -0.91   -2.91   -0.22
#  24    0.36   -0.70    0.09   -0.77   -0.07    0.00    0.00      -1.10   -2.37   -0.22
#  25   -0.13   -0.50    0.07    0.34   -0.10    0.00    0.00      -0.33    1.39   -0.42
#  26    0.89   -0.33    0.01   -1.22    0.31    0.00    0.00      -0.34   -9.16    2.33
#  27   -1.06   -0.45    0.05    0.58   -0.09    0.00    0.00      -0.97    4.22   -0.65
#  28   -0.21   -1.55    0.90   -0.25    0.08    0.00    0.00      -1.03   -1.22    0.39
#  29    1.71   -0.26    0.01   -0.20   -0.05    0.00    0.00       1.21   -1.89   -0.43
#  30    0.04   -0.21    0.00   -0.03   -0.04    0.00    0.00      -0.23   -0.41   -0.44
#  31    0.36   -0.35    0.01   -0.06   -0.06    0.00    0.00      -0.10   -0.40   -0.41
#  32    1.21   -0.48    0.03   -0.12   -0.07    0.00    0.00       0.55   -0.72   -0.44
#  33    1.60   -0.80    0.08   -0.19   -0.11    0.00    0.00       0.59   -0.83   -0.46
#  34    0.11   -1.13    0.23   -0.08   -0.08    0.00    0.00      -0.96   -0.29   -0.30
#  35    0.51   -3.62    1.50   -0.10   -0.38    0.00    0.00      -2.10   -0.26   -0.95
#  36    0.11   -1.09    0.25   -0.07   -0.08    0.00    0.00      -0.87   -0.26   -0.30
#  37    0.10   -3.67    2.02   -0.07   -0.37    0.00    0.00      -1.99   -0.19   -0.95
#  38    0.19   -0.57    0.05   -0.10   -0.08    0.00    0.00      -0.50   -0.54   -0.45
#  39    0.02   -0.70    0.04    0.16   -0.12    0.00    0.00      -0.60    0.44   -0.33
#  40   -1.22   -0.36    0.07    0.98   -0.12    0.00    0.00      -0.65    2.37   -0.28
#  41   -0.59   -1.23    1.51    1.42   -0.16    0.00    0.00       0.95    2.42   -0.28
#  42   -0.15   -1.28    2.41    1.02   -0.18    0.00    0.00       1.82    1.55   -0.28
#  43   -2.21   -0.94    1.49    0.26   -0.14    0.00    0.00      -1.53    0.49   -0.26
#  44   -9.65   -0.03    0.00    2.27    0.14    0.00    0.00      -7.28    7.65    0.48
#  45   -2.38   -1.15    2.40    0.70   -0.14    0.00    0.00      -0.56    1.44   -0.28
#  46   -3.82   -0.73    0.52    0.54   -0.14    0.00    0.00      -3.63    1.06   -0.28
#  47   -3.67   -0.26    0.08    0.75   -0.05    0.00    0.00      -3.15    4.08   -0.28
#  48   -3.20   -0.89    0.45    0.79   -0.15    0.00    0.00      -2.99    1.48   -0.28
#  49   -5.15   -1.15    1.43    0.53   -0.14    0.00    0.00      -4.48    0.98   -0.25
#  50   -3.50   -1.15    1.64    0.95   -0.13    0.00    0.00      -2.19    2.02   -0.28
#  51   -2.75   -0.36    0.11    0.94   -0.08    0.00    0.00      -2.15    3.24   -0.28
#  52   -3.43   -0.60    0.31    1.69   -0.11    0.00    0.00      -2.14    4.31   -0.28
#  53   -3.21   -0.21    0.01    1.25   -0.05    0.00    0.00      -2.21    5.48   -0.22
#  54   -1.35   -0.34    0.07    1.61   -0.09    0.00    0.00      -0.11    5.09   -0.28
#  55   -3.51   -0.35    0.06    1.84   -0.11    0.00    0.00      -2.07    4.58   -0.28
#  56   -2.11   -0.50    0.18    1.55   -0.10    0.00    0.00      -0.97    3.43   -0.22
#  57   -2.22   -0.24    0.04    0.81   -0.07    0.00    0.00      -1.67    3.44   -0.28
#  58   -0.63   -0.11    0.01    0.14   -0.03    0.00    0.00      -0.62    1.43   -0.28
#  59    0.37   -0.84    1.70    0.42   -0.08    0.00    0.00       1.56    1.43   -0.28
#  60   -0.25   -0.46    0.21    0.74   -0.10    0.00    0.00       0.14    2.05   -0.28
#  61   -0.21   -0.17    0.02    0.35   -0.05    0.00    0.00      -0.07    2.01   -0.28
#  62   -0.03   -0.37    0.16    0.08   -0.07    0.00    0.00      -0.23    0.32   -0.28
#  63   -0.09   -0.10    0.01    0.04   -0.03    0.00    0.00      -0.18    0.34   -0.28
#  64   -0.57    0.00    0.00    0.32    0.02    0.00    0.00      -0.24    7.75    0.56
#  65   -1.95   -0.06    0.00    0.20   -0.01    0.00    0.00      -1.82    3.38   -0.21
#  66   -0.29   -0.03    0.00    0.02   -0.01    0.00    0.00      -0.31    0.50   -0.26
#  67   -2.58   -0.08    0.00    0.27   -0.02    0.00    0.00      -2.40    3.47   -0.21
#  68   -3.49   -0.16    0.01    0.34   -0.05    0.00    0.00      -3.34    2.10   -0.28
#  69   -0.29   -0.09    0.00    0.08   -0.02    0.00    0.00      -0.32    0.86   -0.28
#  70   -2.11   -0.17    0.01    0.97   -0.05    0.00    0.00      -1.35    5.50   -0.28
#  71   -3.28   -0.42    0.11    1.38   -0.09    0.00    0.00      -2.30    4.47   -0.28

@<TRIPOS>MOLECULE
          T537774        99
   71    74     0     0     0



@<TRIPOS>ATOM
      1 Cl1         8.6238    -7.6784    99.3266 Cl         1          -0.0134
      2 C1          8.0531    -8.8137    98.1438 C.2        1           0.0394
      3 C2          7.2232    -8.4009    97.1473 C.2        1          -0.2165
      4 S1          6.9332    -9.8996    96.2235 S.3        1           0.0853
      5 C3          7.9246   -11.0011    97.2008 C.ar       1          -0.0833
      6 C4          8.2197   -12.3463    97.1352 C.ar       1          -0.0859
      7 C5          9.0516   -12.9069    98.0829 C.ar       1          -0.0618
      8 C6          9.5797   -12.1071    99.0893 C.ar       1          -0.1200
      9 C7          9.2976   -10.7812    99.1667 C.ar       1          -0.0489
     10 C8          8.4523   -10.1620    98.2102 C.ar       1          -0.1166
     11 C9          6.6960    -7.0541    96.8949 C.2        1           0.6078
     12 O1          6.0148    -6.4997    97.7370 O.2        1          -0.4935
     13 N1          6.9668    -6.4317    95.7305 N.am       1          -0.7286
     14 C10         6.4408    -5.0876    95.4788 C.3        1           0.1301
     15 C11         5.0698    -5.1940    94.8081 C.3        1          -0.1233
     16 C12         4.5166    -3.7896    94.5493 C.3        1          -0.1374
     17 C13         3.1122    -3.9071    93.9502 C.3        1          -0.1442
     18 C14         2.2245    -4.7142    94.8999 C.3        1          -0.0133
     19 N2          2.7925    -6.0548    95.0857 N.4        1          -0.3814
     20 H1          2.8897    -6.5052    94.1881 H          1           0.4227
     21 C15         1.8976    -6.8506    95.9367 C.3        1          -0.0112
     22 C16         0.7369    -7.3858    95.0960 C.3        1          -0.1476
     23 C17         1.2853    -8.2651    93.9703 C.3        1          -0.1153
     24 C18         0.1245    -8.8004    93.1295 C.3        1          -0.1324
     25 C19         0.6729    -9.6795    92.0040 C.3        1           0.1174
     26 N3          1.5654    -8.8860    91.1552 N.am       1          -0.7313
     27 C20         2.8813    -8.8188    91.4385 C.2        1           0.5491
     28 O2          3.3283    -9.4171    92.3993 O.2        1          -0.5374
     29 C21         3.7729    -8.0258    90.5904 C.2        1          -0.2143
     30 C22         3.4953    -7.8703    89.2800 C.2        1          -0.0087
     31 C23         4.3916    -7.0732    88.4275 C.ar       1          -0.0647
     32 C24         5.7090    -6.8282    88.8290 C.ar       1          -0.0859
     33 C25         6.5436    -6.0812    88.0257 C.ar       1          -0.0993
     34 C26         6.0809    -5.5732    86.8228 C.ar       1          -0.0208
     35 Cl2         7.1395    -4.6339    85.8173 Cl         1          -0.0368
     36 C27         4.7765    -5.8116    86.4180 C.ar       1          -0.0337
     37 Cl3         4.2071    -5.1709    84.9085 Cl         1          -0.0361
     38 C28         3.9319    -6.5622    87.2097 C.ar       1          -0.0730
     39 C29         4.1094    -5.9534    95.7259 C.3        1          -0.0010
     40 H2          7.8025   -12.9569    96.3482 H          1           0.1416
     41 H3          9.2902   -13.9595    98.0429 H          1           0.1458
     42 H4         10.2301   -12.5512    99.8283 H          1           0.1394
     43 H5          9.7251   -10.1901    99.9631 H          1           0.1357
     44 H6          7.5098    -6.8736    95.0592 H          1           0.4022
     45 H7          6.3427    -4.5530    96.4235 H          1           0.0840
     46 H8          7.1244    -4.5467    94.8244 H          1           0.0843
     47 H9          5.1676    -5.7273    93.8624 H          1           0.1036
     48 H10         4.4674    -3.2386    95.4886 H          1           0.0884
     49 H11         5.1681    -3.2642    93.8510 H          1           0.0943
     50 H12         2.6898    -2.9115    93.8149 H          1           0.1150
     51 H13         3.1689    -4.4133    92.9865 H          1           0.0889
     52 H14         2.1683    -4.2071    95.8631 H          1           0.1303
     53 H15         1.2237    -4.7997    94.4764 H          1           0.1330
     54 H16         2.4514    -7.6859    96.3653 H          1           0.1331
     55 H17         1.5068    -6.2242    96.7386 H          1           0.1316
     56 H18         0.0728    -7.9762    95.7273 H          1           0.0881
     57 H19         0.1831    -6.5504    94.6675 H          1           0.0880
     58 H20         1.9493    -7.6745    93.3388 H          1           0.0794
     59 H21         1.8392    -9.1003    94.3988 H          1           0.0791
     60 H22        -0.5395    -9.3907    93.7610 H          1           0.0743
     61 H23        -0.4293    -7.9650    92.7011 H          1           0.0747
     62 H24         1.2268   -10.5149    92.4323 H          1           0.0704
     63 H25        -0.1540   -10.0610    91.4050 H          1           0.0703
     64 H26         1.2091    -8.4090    90.3893 H          1           0.4024
     65 H27         4.6531    -7.5652    91.0143 H          1           0.1323
     66 H28         2.6152    -8.3308    88.8563 H          1           0.1427
     67 H29         6.0713    -7.2232    89.7666 H          1           0.1428
     68 H30         7.5608    -5.8913    88.3350 H          1           0.1486
     69 H31         2.9174    -6.7513    86.8916 H          1           0.1503
     70 H32         4.5003    -6.9537    95.9123 H          1           0.1361
     71 H33         4.0132    -5.4199    96.6715 H          1           0.1349
@<TRIPOS>BOND
     1    1    2 1
     2    2   10 1
     3    2    3 2
     4    3    4 1
     5    3   11 1
     6    4    5 1
     7    5   10 ar
     8    5    6 ar
     9    6    7 ar
    10    6   40 1
    11    7    8 ar
    12    7   41 1
    13    8    9 ar
    14    8   42 1
    15    9   10 ar
    16    9   43 1
    17   11   12 2
    18   11   13 am
    19   13   14 1
    20   13   44 1
    21   14   15 1
    22   14   45 1
    23   14   46 1
    24   15   39 1
    25   15   16 1
    26   15   47 1
    27   16   17 1
    28   16   48 1
    29   16   49 1
    30   17   18 1
    31   17   50 1
    32   17   51 1
    33   18   19 1
    34   18   52 1
    35   18   53 1
    36   19   20 1
    37   19   21 1
    38   19   39 1
    39   21   22 1
    40   21   54 1
    41   21   55 1
    42   22   23 1
    43   22   56 1
    44   22   57 1
    45   23   24 1
    46   23   58 1
    47   23   59 1
    48   24   25 1
    49   24   60 1
    50   24   61 1
    51   25   26 1
    52   25   62 1
    53   25   63 1
    54   26   27 am
    55   26   64 1
    56   27   28 2
    57   27   29 1
    58   29   30 2
    59   29   65 1
    60   30   31 1
    61   30   66 1
    62   31   38 ar
    63   31   32 ar
    64   32   33 ar
    65   32   67 1
    66   33   34 ar
    67   33   68 1
    68   34   35 1
    69   34   36 ar
    70   36   37 1
    71   36   38 ar
    72   38   69 1
    73   39   70 1
    74   39   71 1
##########                 Name:              T535510
##########          Protonation:                   15
##########               SMILES:   CC(CCNC(=O)[C@@H]1[NH2+][C@@]2(c3[nH]c4c(c3C1)cc(cc4)Br)CCN(CC2)Cc5ccccc5)C
##########            Long Name:   ro[2,3,4,9-tetrahydropyrido[3,4-b]indol-2-ium-1,4'-piperidine]-3-carboxamide
##########          FlexRecCode: 1
##########               Number:                   54
##########   Ligand Source File: /raidb/db2/rgc/tcams/tcams-0001367.db2.gz
##########           GlobalRank: 467
##########                 Rank:                    1
##########               Setnum:                  166
##########             Matchnum:                 9013
##########                Cloud:                    1
##########        Electrostatic:           -41.057426
##########        Van der Waals:           -26.677179
##########  Ligand Polar Desolv:             7.121685
########## Ligand Apolar Desolv:            -3.064036
##########      Internal Energy:             0.000000
##########      Receptor Energy: 0.0
########## Receptor Desolvation:             0.000000
########## Receptor Hydrophobic:             0.000000
##########         Total Energy: -63.68
##########        Ligand Charge:             1.000000
##########            Arbitrary:    +999.9990
##########     heavy atom count:   34
##########           pose count:    1
##########        Ligand Energy:             0.000000
# num electro vdwattr vdwrepu polsolv apolsol rdesolv rhydroe totalscore fullpol fullapo
#   1    2.95   -0.76    0.16   -0.48   -0.05    0.00    0.00       1.82   -1.62   -0.18
#   2    1.96   -0.67    0.04   -0.42   -0.07    0.00    0.00       0.84   -1.18   -0.19
#   3    3.22   -0.86    0.09   -0.72   -0.08    0.00    0.00       1.66   -1.72   -0.18
#   4    3.52   -1.35    0.40   -0.81   -0.09    0.00    0.00       1.68   -1.86   -0.21
#   5   -3.02   -1.13    0.22    0.94   -0.18    0.00    0.00      -3.16    2.17   -0.41
#   6   18.10   -1.30    0.13   -5.84    0.85    0.00    0.00      11.94  -15.62    2.28
#   7  -13.19   -1.14    0.08    4.63   -0.22    0.00    0.00      -9.85   12.58   -0.60
#   8   11.14   -1.14    0.08   -4.90    0.16    0.00    0.00       5.34  -11.66    0.38
#   9   -0.18   -1.01    0.25    0.59   -0.10    0.00    0.00      -0.45    1.47   -0.24
#  10    1.76   -0.95    0.13   -0.68   -0.10    0.00    0.00       0.16   -1.63   -0.23
#  11    2.96   -0.89    0.06   -0.98   -0.13    0.00    0.00       1.02   -3.22   -0.43
#  12   -0.63   -0.73    0.06    0.47   -0.14    0.00    0.00      -0.97    1.94   -0.57
#  13    2.15   -1.44    0.61   -2.79    0.23    0.00    0.00      -1.23  -11.24    0.94
#  14   -0.60   -1.42    0.42    0.47   -0.24    0.00    0.00      -1.37    1.52   -0.77
#  15    0.31   -1.72    0.43   -0.56   -0.17    0.00    0.00      -1.71   -1.59   -0.48
#  16    0.37   -1.53    0.24   -0.48   -0.18    0.00    0.00      -1.58   -1.22   -0.46
#  17    1.14   -1.57    0.28   -0.64   -0.13    0.00    0.00      -0.91   -1.48   -0.30
#  18    0.59   -7.24    5.47   -0.48   -0.62    0.00    0.00      -2.29   -0.87   -1.11
#  19    0.44   -1.37    0.14   -0.21   -0.19    0.00    0.00      -1.19   -0.50   -0.46
#  20    1.13   -1.07    0.09   -0.61   -0.15    0.00    0.00      -0.60   -1.80   -0.44
#  21   -3.17   -0.41    0.03    1.14   -0.01    0.00    0.00      -2.43    5.52   -0.05
#  22    1.58   -0.33    0.02   -0.64   -0.03    0.00    0.00       0.59   -3.71   -0.20
#  23   -0.11   -0.59    0.16    0.18   -0.07    0.00    0.00      -0.43    0.97   -0.38
#  24    1.77   -0.36    0.03   -1.23    0.38    0.00    0.00       0.58  -10.43    3.20
#  25   -0.02   -0.29    0.06    0.18   -0.05    0.00    0.00      -0.12    1.53   -0.39
#  26    0.05   -0.35    0.04   -0.12   -0.04    0.00    0.00      -0.42   -0.92   -0.34
#  27    0.05   -1.03    0.38   -0.27   -0.10    0.00    0.00      -0.97   -1.24   -0.46
#  28    0.11   -0.91    0.43   -0.28   -0.10    0.00    0.00      -0.75   -1.31   -0.47
#  29    0.12   -0.30    0.02   -0.17   -0.06    0.00    0.00      -0.39   -1.29   -0.47
#  30    0.12   -0.15    0.00   -0.09   -0.03    0.00    0.00      -0.14   -1.39   -0.47
#  31    0.10   -0.13    0.00   -0.09   -0.02    0.00    0.00      -0.14   -1.39   -0.37
#  32   -0.42   -0.20    0.01    0.09   -0.04    0.00    0.00      -0.57    0.78   -0.38
#  33    2.78   -0.38    0.04   -0.65   -0.03    0.00    0.00       1.75   -3.55   -0.19
#  34   18.63   -1.66    1.46   -4.25    0.11    0.00    0.00      14.29  -14.52    0.38
#  35  -15.65   -0.02    0.00    3.68    0.13    0.00    0.00     -11.86   14.95    0.54
#  36  -25.66   -0.17    0.08    4.37    0.14    0.00    0.00     -21.24   15.32    0.49
#  37   -1.08   -0.14    0.01    0.03   -0.05    0.00    0.00      -1.23    0.19   -0.28
#  38   -1.74   -0.68    0.93    0.22   -0.09    0.00    0.00      -1.36    0.67   -0.28
#  39   -0.55   -0.16    0.02    0.09   -0.04    0.00    0.00      -0.64    0.59   -0.28
#  40   -1.29   -0.21    0.02    0.14   -0.06    0.00    0.00      -1.39    0.72   -0.28
#  41   -1.22   -0.31    0.03    0.21   -0.10    0.00    0.00      -1.39    0.63   -0.28
#  42   -0.83   -0.24    0.03    0.21   -0.06    0.00    0.00      -0.89    0.84   -0.22
#  43   -1.50   -0.34    0.11    0.05   -0.08    0.00    0.00      -1.76    0.18   -0.28
#  44   -1.80   -0.87    1.16    0.59   -0.11    0.00    0.00      -1.02    1.47   -0.28
#  45   -2.46   -0.65    0.36    0.64   -0.11    0.00    0.00      -2.22    1.58   -0.28
#  46   -2.30   -0.58    0.23    0.39   -0.13    0.00    0.00      -2.39    0.83   -0.28
#  47   -2.28   -0.25    0.04    0.22   -0.05    0.00    0.00      -2.33    0.88   -0.22
#  48  -11.02   -0.02    0.00    3.07    0.15    0.00    0.00      -7.82   11.06    0.54
#  49   -7.44   -0.51    0.18    3.12   -0.09    0.00    0.00      -4.75    7.12   -0.21
#  50   -4.91   -0.45    0.14    1.81   -0.12    0.00    0.00      -3.53    4.17   -0.27
#  51   -2.79   -0.44    0.22    1.09   -0.09    0.00    0.00      -2.01    3.49   -0.28
#  52    0.39   -0.03    0.00    1.74    0.07    0.00    0.00       2.18    8.95    0.37
#  53   -0.05   -0.46    0.16    0.64   -0.08    0.00    0.00       0.21    2.25   -0.28
#  54   -0.90   -0.29    0.03    0.27   -0.08    0.00    0.00      -0.97    0.91   -0.28
#  55   -2.44   -0.31    0.03    0.88   -0.09    0.00    0.00      -1.93    2.63   -0.28
#  56   -1.10   -0.11    0.01    0.37   -0.03    0.00    0.00      -0.86    3.59   -0.28
#  57   -1.50   -0.08    0.00    0.30   -0.02    0.00    0.00      -1.29    4.32   -0.28
#  58    0.27   -0.70    0.84    0.17   -0.04    0.00    0.00       0.54    0.79   -0.20
#  59   -0.08   -0.14    0.02    0.25   -0.04    0.00    0.00       0.02    1.91   -0.28
#  60   -0.02   -0.03    0.00    0.03   -0.01    0.00    0.00      -0.03    0.86   -0.28
#  61    0.03   -0.30    0.30    0.19   -0.04    0.00    0.00       0.17    1.41   -0.27
#  62    0.00   -0.81    1.58    0.49   -0.08    0.00    0.00       1.18    1.69   -0.28
#  63   -0.13   -0.61    1.48    0.25   -0.07    0.00    0.00       0.92    1.07   -0.28
#  64   -0.15   -0.05    0.00    0.04   -0.01    0.00    0.00      -0.17    0.90   -0.28
#  65   -0.12   -0.02    0.00    0.04   -0.01    0.00    0.00      -0.12    1.29   -0.28
#  66   -0.11   -0.02    0.00    0.05   -0.01    0.00    0.00      -0.08    2.05   -0.27
#  67   -0.27   -0.08    0.01    0.07   -0.02    0.00    0.00      -0.29    0.79   -0.21
#  68   -0.90   -0.03    0.00    0.04   -0.01    0.00    0.00      -0.89    1.22   -0.20
#  69   -2.59   -0.14    0.01    0.49   -0.03    0.00    0.00      -2.26    3.91   -0.27
#  70   -2.58   -0.17    0.02    0.56   -0.04    0.00    0.00      -2.20    3.67   -0.23

@<TRIPOS>MOLECULE
          T535510        15
   70    74     0     0     0



@<TRIPOS>ATOM
      1 C1         -0.3483    -6.3679    93.4929 C.3        1          -0.1510
      2 C2         -0.0590    -4.8673    93.4186 C.3        1          -0.0926
      3 C3         -1.2106    -4.1607    92.7007 C.3        1          -0.1554
      4 C4          0.0815    -4.3042    94.8343 C.3        1          -0.1303
      5 C5          1.2331    -5.0107    95.5523 C.3        1           0.1106
      6 N1          2.4784    -4.7895    94.8130 N.am       1          -0.6987
      7 C6          3.6323    -5.3217    95.2621 C.2        1           0.5067
      8 O1          3.6397    -5.9837    96.2783 O.2        1          -0.5231
      9 C7          4.9101    -5.0949    94.5035 C.3        1           0.0051
     10 C8          6.0915    -5.7039    95.2601 C.3        1          -0.0581
     11 C9          6.0492    -7.1908    95.0289 C.2        1          -0.1524
     12 C10         5.4333    -7.7713    93.9744 C.2        1           0.0427
     13 N2          5.5866    -9.1315    94.0589 N.pl3      1          -0.5574
     14 C11         6.3199    -9.4561    95.1646 C.ar       1           0.1210
     15 C12         6.7695   -10.6766    95.6638 C.ar       1          -0.1148
     16 C13         7.4891   -10.6431    96.8458 C.ar       1          -0.0591
     17 C14         7.7607    -9.4588    97.5130 C.ar       1          -0.1054
     18 Br1         8.7410    -9.5217    99.1292 Br         1          -0.0349
     19 C15         7.3422    -8.2405    97.0358 C.ar       1          -0.0325
     20 C16         6.6241    -8.2451    95.8360 C.ar       1          -0.0919
     21 C17         4.7132    -7.0024    92.9003 C.3        1           0.1499
     22 C18         3.2372    -7.3888    92.8506 C.3        1          -0.1374
     23 C19         3.0537    -8.8204    92.3494 C.3        1           0.0554
     24 N3          3.6588    -8.9619    91.0200 N.3        1          -0.5256
     25 C20         3.3692   -10.2819    90.4448 C.3        1           0.0944
     26 C21         1.8781   -10.4578    90.3167 C.ar       1          -0.0915
     27 C22         1.1544   -11.0041    91.3601 C.ar       1          -0.0953
     28 C23        -0.2135   -11.1656    91.2427 C.ar       1          -0.1168
     29 C24        -0.8577   -10.7802    90.0819 C.ar       1          -0.1112
     30 C25        -0.1342   -10.2331    89.0388 C.ar       1          -0.1182
     31 C26         1.2331   -10.0678    89.1580 C.ar       1          -0.1186
     32 C27         5.1044    -8.7136    91.0780 C.3        1           0.0483
     33 C28         5.3730    -7.2886    91.5432 C.3        1          -0.1320
     34 N4          4.8325    -5.5576    93.1309 N.4        1          -0.4856
     35 H1          4.0434    -5.1022    92.6712 H          1           0.4346
     36 H2          5.6626    -5.2347    92.6293 H          1           0.4414
     37 H3          0.4721    -6.8712    94.0044 H          1           0.0614
     38 H4         -1.2750    -6.5324    94.0427 H          1           0.0568
     39 H5         -0.4482    -6.7688    92.4842 H          1           0.0569
     40 H6          0.8676    -4.7027    92.8685 H          1           0.0754
     41 H7         -1.0043    -3.0917    92.6478 H          1           0.0571
     42 H8         -1.3105    -4.5617    91.6920 H          1           0.0552
     43 H9         -2.1372    -4.3253    93.2505 H          1           0.0613
     44 H10         0.2875    -3.2351    94.7813 H          1           0.0743
     45 H11        -0.8451    -4.4688    95.3843 H          1           0.0745
     46 H12         1.3331    -4.6095    96.5607 H          1           0.0809
     47 H13         1.0270    -6.0798    95.6051 H          1           0.0837
     48 H14         2.4725    -4.2600    94.0002 H          1           0.4105
     49 H15         5.0767    -3.9969    94.4764 H          1           0.1681
     50 H16         7.0307    -5.2934    94.8871 H          1           0.1277
     51 H17         5.9980    -5.4929    96.3278 H          1           0.1108
     52 H18         5.2316    -9.7810    93.4341 H          1           0.4202
     53 H19         6.5691   -11.6055    95.1507 H          1           0.1450
     54 H20         7.8527   -11.5711    97.2617 H          1           0.1424
     55 H21         7.5547    -7.3230    97.5644 H          1           0.1459
     56 H22         2.7990    -7.3183    93.8486 H          1           0.1021
     57 H23         2.7049    -6.7034    92.1866 H          1           0.1092
     58 H24         3.5084    -9.5216    93.0444 H          1           0.0380
     59 H25         1.9842    -9.0405    92.2792 H          1           0.1064
     60 H26         3.8300   -10.3581    89.4599 H          1           0.0498
     61 H27         3.7721   -11.0581    91.0955 H          1           0.0944
     62 H28         1.6577   -11.3051    92.2670 H          1           0.1236
     63 H29        -0.7788   -11.5929    92.0576 H          1           0.1259
     64 H30        -1.9263   -10.9070    89.9899 H          1           0.1254
     65 H31        -0.6375    -9.9324    88.1318 H          1           0.1242
     66 H32         1.7978    -9.6369    88.3445 H          1           0.1160
     67 H33         5.5793    -9.4297    91.7431 H          1           0.0425
     68 H34         5.5212    -8.8478    90.0730 H          1           0.1096
     69 H35         4.9827    -6.5805    90.8066 H          1           0.1075
     70 H36         6.4511    -7.1336    91.6401 H          1           0.0969
@<TRIPOS>BOND
     1    1    2 1
     2    1   37 1
     3    1   38 1
     4    1   39 1
     5    2    3 1
     6    2    4 1
     7    2   40 1
     8    3   41 1
     9    3   42 1
    10    3   43 1
    11    4    5 1
    12    4   44 1
    13    4   45 1
    14    5    6 1
    15    5   46 1
    16    5   47 1
    17    6    7 am
    18    6   48 1
    19    7    8 2
    20    7    9 1
    21    9   34 1
    22    9   10 1
    23    9   49 1
    24   10   11 1
    25   10   50 1
    26   10   51 1
    27   11   20 1
    28   11   12 2
    29   12   13 1
    30   12   21 1
    31   13   14 1
    32   13   52 1
    33   14   20 ar
    34   14   15 ar
    35   15   16 ar
    36   15   53 1
    37   16   17 ar
    38   16   54 1
    39   17   18 1
    40   17   19 ar
    41   19   20 ar
    42   19   55 1
    43   21   33 1
    44   21   22 1
    45   21   34 1
    46   22   23 1
    47   22   56 1
    48   22   57 1
    49   23   24 1
    50   23   58 1
    51   23   59 1
    52   24   25 1
    53   24   32 1
    54   25   26 1
    55   25   60 1
    56   25   61 1
    57   26   31 ar
    58   26   27 ar
    59   27   28 ar
    60   27   62 1
    61   28   29 ar
    62   28   63 1
    63   29   30 ar
    64   29   64 1
    65   30   31 ar
    66   30   65 1
    67   31   66 1
    68   32   33 1
    69   32   67 1
    70   32   68 1
    71   33   69 1
    72   33   70 1
    73   34   35 1
    74   34   36 1
##########                 Name:              T526912
##########          Protonation:                   22
##########               SMILES:   Cc1cc([nH]/c(=N\c2ccccc2)/[nH+]1)N[C@@H](CC(C)C)C(=O)Nc3ccc(cc3)OC
##########            Long Name:   yl-2-[[(2E)-4-methyl-2-phenylimino-1H-pyrimidin-3-ium-6-yl]amino]pentanamide
##########          FlexRecCode: 1
##########               Number:                  324
##########   Ligand Source File: /raidb/db2/rgc/tcams/tcams-0000225.db2.gz
##########           GlobalRank: 469
##########                 Rank:                    1
##########               Setnum:                   64
##########             Matchnum:                 3208
##########                Cloud:                    1
##########        Electrostatic:           -43.181938
##########        Van der Waals:           -23.857353
##########  Ligand Polar Desolv:             5.880070
########## Ligand Apolar Desolv:            -2.502090
##########      Internal Energy:             0.000000
##########      Receptor Energy: 0.0
########## Receptor Desolvation:             0.000000
########## Receptor Hydrophobic:             0.000000
##########         Total Energy: -63.66
##########        Ligand Charge:             1.000000
##########            Arbitrary:    +999.9990
##########     heavy atom count:   31
##########           pose count:    1
##########        Ligand Energy:             0.000000
# num electro vdwattr vdwrepu polsolv apolsol rdesolv rhydroe totalscore fullpol fullapo
#   1   -0.17   -1.71    0.46    0.05    0.02    0.00    0.00      -1.34    0.09    0.03
#   2    1.80   -2.08    0.84   -0.72    0.49    0.00    0.00       0.33   -1.36    0.93
#   3   -0.75   -1.58    0.27    0.10   -0.12    0.00    0.00      -2.09    0.25   -0.31
#   4    1.89   -1.46    0.20   -0.52   -0.16    0.00    0.00      -0.05   -1.34   -0.42
#   5    0.95   -1.27    0.17   -0.29   -0.14    0.00    0.00      -0.59   -0.82   -0.40
#   6   -0.94   -1.15    0.20    0.31   -0.20    0.00    0.00      -1.78    1.07   -0.68
#   7   12.18   -1.04    0.16   -2.58    0.37    0.00    0.00       9.09   -9.47    1.37
#   8   -8.08   -0.61    0.04    1.76   -0.12    0.00    0.00      -7.02    7.92   -0.56
#   9    2.64   -0.78    0.14   -1.31    0.06    0.00    0.00       0.75   -6.62    0.31
#  10   -2.45   -0.56    0.12    0.52   -0.05    0.00    0.00      -2.42    2.47   -0.22
#  11    4.43   -1.24    0.82   -0.65   -0.05    0.00    0.00       3.30   -2.40   -0.19
#  12    1.99   -0.36    0.03   -0.35   -0.03    0.00    0.00       1.28   -1.78   -0.15
#  13    1.86   -0.14    0.00   -0.26   -0.02    0.00    0.00       1.45   -2.96   -0.17
#  14    2.55   -0.42    0.04   -0.46   -0.04    0.00    0.00       1.67   -2.21   -0.18
#  15   24.41   -2.09    1.80   -3.86    0.39    0.00    0.00      20.64  -14.27    1.45
#  16  -14.28   -0.79    0.07    3.16   -0.50    0.00    0.00     -12.35   12.81   -2.03
#  17    8.51   -0.86    0.04   -2.49   -0.14    0.00    0.00       5.05   -7.94   -0.46
#  18   -7.46   -0.94    0.04    3.28   -0.27    0.00    0.00      -5.35    9.01   -0.75
#  19    3.81   -1.36    0.24   -2.00   -0.10    0.00    0.00       0.58   -4.12   -0.21
#  20   11.53   -0.79    0.03   -3.81    0.29    0.00    0.00       7.26  -12.52    0.97
#  21  -12.38   -0.02    0.00    2.46    0.12    0.00    0.00      -9.82   11.52    0.58
#  22   -8.43   -0.55    0.01    2.68   -1.02    0.00    0.00      -7.31   12.13   -4.62
#  23   10.44   -0.53    0.02   -2.78    0.19    0.00    0.00       7.33  -13.86    0.95
#  24    4.81   -0.59    0.03   -2.09    0.46    0.00    0.00       2.62   -9.28    2.04
#  25   -0.19   -0.41    0.01    0.22   -0.09    0.00    0.00      -0.46    1.37   -0.58
#  26    0.38   -0.56    0.05   -0.53   -0.07    0.00    0.00      -0.72   -2.79   -0.37
#  27    0.14   -0.40    0.02   -0.22   -0.07    0.00    0.00      -0.54   -1.42   -0.47
#  28    0.14   -0.19    0.00   -0.14   -0.03    0.00    0.00      -0.22   -1.89   -0.47
#  29    0.11   -0.18    0.00   -0.10   -0.03    0.00    0.00      -0.20   -1.33   -0.47
#  30    0.15   -0.32    0.01   -0.26   -0.07    0.00    0.00      -0.49   -1.81   -0.47
#  31    0.48   -1.21    0.22   -0.26   -0.13    0.00    0.00      -0.89   -0.92   -0.46
#  32    0.51   -1.47    0.24   -0.39   -0.16    0.00    0.00      -1.26   -1.10   -0.46
#  33   -0.57   -0.85    0.86    0.31   -0.16    0.00    0.00      -0.40    0.54   -0.27
#  34   -0.12   -1.08    1.97    0.32   -0.14    0.00    0.00       0.94    0.60   -0.26
#  35   -1.09   -0.35    0.04    0.43   -0.13    0.00    0.00      -1.09    0.96   -0.28
#  36   -1.77   -0.34    0.07    0.32   -0.06    0.00    0.00      -1.79    1.10   -0.22
#  37   -2.35   -0.25    0.02    0.31   -0.05    0.00    0.00      -2.32    1.23   -0.22
#  38  -11.37   -0.03    0.00    1.89    0.10    0.00    0.00      -9.40    7.76    0.42
#  39   -1.99   -0.07    0.00    0.24   -0.01    0.00    0.00      -1.84    3.41   -0.16
#  40   -3.42   -0.60    0.51    0.62   -0.07    0.00    0.00      -2.96    2.39   -0.28
#  41   -4.04   -0.82    1.20    0.47   -0.09    0.00    0.00      -3.29    1.43   -0.28
#  42   -1.17   -0.11    0.01    0.15   -0.02    0.00    0.00      -1.15    1.35   -0.17
#  43   -0.56   -0.02    0.00    0.03   -0.01    0.00    0.00      -0.56    1.06   -0.28
#  44   -0.42   -0.03    0.00    0.06   -0.01    0.00    0.00      -0.40    1.66   -0.21
#  45   -0.81   -0.05    0.00    0.05   -0.01    0.00    0.00      -0.82    1.06   -0.28
#  46   -0.66   -0.06    0.00    0.03   -0.02    0.00    0.00      -0.71    0.52   -0.28
#  47   -1.43   -0.12    0.01    0.08   -0.04    0.00    0.00      -1.50    0.63   -0.28
#  48   -1.15   -0.27    0.07    0.19   -0.06    0.00    0.00      -1.22    0.84   -0.28
#  49  -27.49   -0.18    0.08    3.15    0.16    0.00    0.00     -24.28   10.00    0.52
#  50   -5.84   -0.21    0.01    1.36   -0.06    0.00    0.00      -4.73    6.87   -0.28
#  51   -3.86   -0.48    0.10    1.88   -0.13    0.00    0.00      -2.49    3.93   -0.28
#  52   -2.26   -0.40    0.08    1.28   -0.11    0.00    0.00      -1.42    3.20   -0.28
#  53   -3.41   -0.87    0.50    1.87   -0.13    0.00    0.00      -2.04    3.97   -0.28
#  54   -5.79   -0.01    0.00    0.79    0.02    0.00    0.00      -4.98    9.33    0.27
#  55   -0.45   -0.23    0.08    0.41   -0.05    0.00    0.00      -0.23    2.41   -0.28
#  56   -0.16   -0.11    0.00    0.29   -0.03    0.00    0.00      -0.01    2.52   -0.28
#  57   -0.16   -0.03    0.00    0.07   -0.01    0.00    0.00      -0.13    1.94   -0.28
#  58   -0.13   -0.03    0.00    0.05   -0.01    0.00    0.00      -0.11    1.63   -0.28
#  59   -0.16   -0.10    0.01    0.15   -0.03    0.00    0.00      -0.14    1.30   -0.28
#  60   -0.56   -0.19    0.03    0.39   -0.04    0.00    0.00      -0.37    2.54   -0.28
#  61   -0.59   -0.34    0.07    0.27   -0.08    0.00    0.00      -0.68    0.94   -0.28

@<TRIPOS>MOLECULE
          T526912        22
   61    63     0     0     0



@<TRIPOS>ATOM
      1 C1          7.6063   -13.0189    97.3258 C.3        1           0.0244
      2 O1          7.6613   -11.6586    97.7602 O.3        1          -0.3128
      3 C2          7.4115   -10.7021    96.8267 C.ar       1           0.1300
      4 C3          7.4542    -9.3612    97.1793 C.ar       1          -0.1901
      5 C4          7.2007    -8.3893    96.2316 C.ar       1          -0.0743
      6 C5          6.9035    -8.7546    94.9254 C.ar       1           0.0843
      7 N1          6.6466    -7.7690    93.9633 N.am       1          -0.6519
      8 C6          5.8125    -8.0299    92.9373 C.2        1           0.5147
      9 O2          5.2840    -9.1179    92.8469 O.2        1          -0.5021
     10 C7          5.5361    -6.9698    91.9024 C.3        1           0.0947
     11 C8          6.8459    -6.5688    91.2208 C.3        1          -0.1330
     12 C9          7.4643    -7.7935    90.5437 C.3        1          -0.1101
     13 C10         6.4925    -8.3431    89.4976 C.3        1          -0.1646
     14 C11         8.7741    -7.3924    89.8621 C.3        1          -0.1483
     15 N2          4.9439    -5.7971    92.5508 N.pl3      1          -0.6436
     16 C12         3.7581    -5.9147    93.2295 C.2        1           0.5573
     17 C13         3.6861    -5.6123    94.5792 C.2        1          -0.3317
     18 C14         2.4703    -5.7406    95.2394 C.2        1           0.3299
     19 C15         2.3767    -5.4145    96.7077 C.3        1          -0.1510
     20 N3          1.3973    -6.1462    94.5876 N.pl3      1          -0.5464
     21 H1          0.5551    -6.2316    95.0612 H          1           0.4599
     22 C16         1.4484    -6.4423    93.2854 C.2        1           0.5674
     23 N4          2.6253    -6.3271    92.5841 N.pl3      1          -0.6399
     24 N5          0.3513    -6.8472    92.6620 N.2        1          -0.5034
     25 C17         0.4180    -7.2623    91.3625 C.ar       1           0.0780
     26 C18         0.2519    -6.3435    90.3223 C.ar       1          -0.1744
     27 C19         0.3209    -6.7700    89.0127 C.ar       1          -0.0974
     28 C20         0.5541    -8.1038    88.7272 C.ar       1          -0.1104
     29 C21         0.7192    -9.0195    89.7517 C.ar       1          -0.0926
     30 C22         0.6585    -8.6070    91.0662 C.ar       1          -0.0997
     31 C23         6.8614   -10.0969    94.5731 C.ar       1          -0.0932
     32 C24         7.1198   -11.0676    95.5206 C.ar       1          -0.1307
     33 H2          7.8243   -13.6778    98.1664 H          1           0.0582
     34 H3          6.6100   -13.2378    96.9416 H          1           0.0579
     35 H4          8.3427   -13.1790    96.5383 H          1           0.1059
     36 H5          7.6854    -9.0773    98.1953 H          1           0.1359
     37 H6          7.2332    -7.3454    96.5064 H          1           0.1357
     38 H7          7.0690    -6.8988    94.0356 H          1           0.4147
     39 H8          4.8437    -7.3614    91.1572 H          1           0.1148
     40 H9          6.6460    -5.8020    90.4724 H          1           0.0866
     41 H10         7.5382    -6.1773    91.9661 H          1           0.0974
     42 H11         7.6643    -8.5601    91.2923 H          1           0.0825
     43 H12         6.9331    -9.2155    89.0153 H          1           0.0777
     44 H13         5.5594    -8.6287    89.9832 H          1           0.0460
     45 H14         6.2926    -7.5763    88.7491 H          1           0.0662
     46 H15         9.2147    -8.2650    89.3798 H          1           0.0624
     47 H16         8.5741    -6.6256    89.1136 H          1           0.0692
     48 H17         9.4665    -7.0008    90.6074 H          1           0.0608
     49 H18         5.3906    -4.9376    92.4999 H          1           0.4513
     50 H19         4.5648    -5.2806    95.1123 H          1           0.1976
     51 H20         1.3543    -5.5729    97.0506 H          1           0.1279
     52 H21         3.0519    -6.0617    97.2674 H          1           0.1071
     53 H22         2.6563    -4.3732    96.8672 H          1           0.1241
     54 H23         2.6527    -6.5405    91.6384 H          1           0.4433
     55 H24         0.0695    -5.3023    90.5436 H          1           0.1200
     56 H25         0.1925    -6.0612    88.2078 H          1           0.1330
     57 H26         0.6072    -8.4320    87.6995 H          1           0.1348
     58 H27         0.9005   -10.0590    89.5210 H          1           0.1378
     59 H28         0.7920    -9.3219    91.8646 H          1           0.1352
     60 H29         6.6302   -10.3816    93.5572 H          1           0.1356
     61 H30         7.0911   -12.1116    95.2456 H          1           0.1417
@<TRIPOS>BOND
     1    1    2 1
     2    1   33 1
     3    1   34 1
     4    1   35 1
     5    2    3 1
     6    3   32 ar
     7    3    4 ar
     8    4    5 ar
     9    4   36 1
    10    5    6 ar
    11    5   37 1
    12    6    7 1
    13    6   31 ar
    14    7    8 am
    15    7   38 1
    16    8    9 2
    17    8   10 1
    18   10   11 1
    19   10   15 1
    20   10   39 1
    21   11   12 1
    22   11   40 1
    23   11   41 1
    24   12   13 1
    25   12   14 1
    26   12   42 1
    27   13   43 1
    28   13   44 1
    29   13   45 1
    30   14   46 1
    31   14   47 1
    32   14   48 1
    33   15   16 1
    34   15   49 1
    35   16   23 1
    36   16   17 2
    37   17   18 1
    38   17   50 1
    39   18   19 1
    40   18   20 2
    41   19   51 1
    42   19   52 1
    43   19   53 1
    44   20   21 1
    45   20   22 1
    46   22   23 1
    47   22   24 2
    48   23   54 1
    49   24   25 1
    50   25   30 ar
    51   25   26 ar
    52   26   27 ar
    53   26   55 1
    54   27   28 ar
    55   27   56 1
    56   28   29 ar
    57   28   57 1
    58   29   30 ar
    59   29   58 1
    60   30   59 1
    61   31   32 ar
    62   31   60 1
    63   32   61 1
##########                 Name:              T542441
##########          Protonation:                   99
##########               SMILES:   C[C@H](Cc1ccc(cc1)OC)[NH2+]C[C@H](c2cccc(c2)C(F)(F)F)O
##########            Long Name:   fluoromethyl)phenyl]ethyl]-[(1R)-2-(4-methoxyphenyl)-1-methyl-ethyl]ammonium
##########          FlexRecCode: 1
##########               Number:                   99
##########   Ligand Source File: /raidb/db2/rgc/tcams/tcams-0002266.db2.gz
##########           GlobalRank: 469
##########                 Rank:                    1
##########               Setnum:                  194
##########             Matchnum:                 3204
##########                Cloud:                    1
##########        Electrostatic:           -42.792488
##########        Van der Waals:           -25.695580
##########  Ligand Polar Desolv:             7.097663
########## Ligand Apolar Desolv:            -2.272913
##########      Internal Energy:             0.000000
##########      Receptor Energy: 0.0
########## Receptor Desolvation:             0.000000
########## Receptor Hydrophobic:             0.000000
##########         Total Energy: -63.66
##########        Ligand Charge:             1.000000
##########            Arbitrary:    +999.9990
##########     heavy atom count:   25
##########           pose count:    1
##########        Ligand Energy:             0.000000
# num electro vdwattr vdwrepu polsolv apolsol rdesolv rhydroe totalscore fullpol fullapo
#   1   -0.20   -1.40    0.39    0.11    0.02    0.00    0.00      -1.09    0.20    0.03
#   2    2.22   -1.40    0.21   -1.62    0.50    0.00    0.00      -0.10   -3.01    0.93
#   3   -1.06   -1.32    0.14    0.22   -0.12    0.00    0.00      -2.14    0.55   -0.31
#   4    0.54   -1.73    0.40   -1.27   -0.15    0.00    0.00      -2.22   -3.52   -0.42
#   5    0.38   -1.47    0.44   -0.49   -0.11    0.00    0.00      -1.26   -1.65   -0.38
#   6    2.08   -1.22    0.24   -0.78   -0.10    0.00    0.00       0.21   -2.63   -0.33
#   7    1.90   -0.71    0.11   -0.73   -0.06    0.00    0.00       0.51   -2.62   -0.21
#   8   -0.63   -0.52    0.03    0.63   -0.07    0.00    0.00      -0.56    2.29   -0.24
#   9    4.12   -0.87    0.14   -2.30   -0.08    0.00    0.00       1.01   -5.70   -0.19
#  10   17.40   -1.16    0.50   -5.28    0.19    0.00    0.00      11.67  -16.84    0.62
#  11  -20.37   -0.05    0.01    4.96    0.16    0.00    0.00     -15.30   16.97    0.56
#  12  -15.04   -0.02    0.00    2.48    0.07    0.00    0.00     -12.51   14.72    0.39
#  13    1.32   -0.61    0.04   -0.30   -0.12    0.00    0.00       0.33   -0.93   -0.36
#  14   -4.26   -1.61    0.95    1.63   -0.06    0.00    0.00      -3.34    4.06   -0.14
#  15   20.19   -3.06    2.09   -5.69    0.62    0.00    0.00      14.15  -15.03    1.64
#  16    2.87   -2.18    1.23   -0.82   -0.13    0.00    0.00       0.97   -2.28   -0.35
#  17    1.74   -2.89    1.23   -0.58   -0.19    0.00    0.00      -0.70   -1.30   -0.44
#  18    2.53   -2.12    0.52   -1.02   -0.22    0.00    0.00      -0.32   -2.15   -0.47
#  19    1.12   -1.31    0.13   -0.60   -0.19    0.00    0.00      -0.86   -1.41   -0.44
#  20    2.34   -1.15    0.21   -0.84   -0.12    0.00    0.00       0.44   -2.60   -0.37
#  21    0.62   -1.58    0.88   -0.32   -0.12    0.00    0.00      -0.53   -1.14   -0.44
#  22   -4.03   -0.67    0.09    1.17   -0.02    0.00    0.00      -3.46    3.79   -0.07
#  23    2.42   -1.25    0.53   -0.40   -0.16    0.00    0.00       1.14   -1.10   -0.44
#  24    0.28   -0.60    0.09   -0.47   -0.15    0.00    0.00      -0.85   -1.49   -0.48
#  25    0.52   -0.36    0.03   -0.30   -0.11    0.00    0.00      -0.22   -1.34   -0.48
#  26    0.90   -2.28    1.32   -0.46   -0.16    0.00    0.00      -0.68   -1.32   -0.45
#  27    1.67   -1.54    0.31   -1.00   -0.18    0.00    0.00      -0.75   -2.55   -0.46
#  28   -0.35   -0.54    0.13    0.42   -0.15    0.00    0.00      -0.49    0.74   -0.26
#  29   -1.15   -0.36    0.08    0.37   -0.11    0.00    0.00      -1.17    0.97   -0.28
#  30   -0.74   -0.60    0.48    0.53   -0.12    0.00    0.00      -0.45    1.19   -0.26
#  31    0.10   -0.62    0.28    0.76   -0.08    0.00    0.00       0.45    2.20   -0.22
#  32    0.05   -0.45    0.28    1.19   -0.06    0.00    0.00       1.01    5.64   -0.28
#  33   -3.44   -0.51    0.34    0.79   -0.08    0.00    0.00      -2.89    2.83   -0.28
#  34   -1.72   -0.13    0.01    0.54   -0.04    0.00    0.00      -1.34    4.07   -0.28
#  35   -1.66   -0.15    0.01    0.61   -0.03    0.00    0.00      -1.21    5.07   -0.28
#  36   -1.90   -0.34    0.07    0.79   -0.06    0.00    0.00      -1.44    2.98   -0.21
#  37   -1.79   -0.22    0.02    0.38   -0.06    0.00    0.00      -1.67    1.87   -0.28
#  38   -2.33   -0.36    0.08    1.14   -0.11    0.00    0.00      -1.57    2.93   -0.28
#  39   -2.68   -0.10    0.00    0.53   -0.03    0.00    0.00      -2.27    5.82   -0.28
#  40   -4.07   -0.21    0.01    1.20   -0.05    0.00    0.00      -3.11    5.86   -0.22
#  41   -5.03   -0.90    1.05    2.18   -0.13    0.00    0.00      -2.81    4.81   -0.28
#  42  -21.32   -0.11    0.01    4.31    0.37    0.00    0.00     -16.73   11.65    1.01
#  43   -3.30   -1.40    2.26    2.45   -0.11    0.00    0.00      -0.10    5.21   -0.24
#  44   -3.56   -0.71    0.48    0.95   -0.11    0.00    0.00      -2.96    2.34   -0.28
#  45   -3.56   -0.29    0.05    0.22   -0.06    0.00    0.00      -3.65    0.86   -0.25
#  46   -1.34   -0.21    0.06    0.55   -0.05    0.00    0.00      -0.98    3.43   -0.28
#  47   -2.56   -0.80    0.73    1.04   -0.09    0.00    0.00      -1.69    3.14   -0.28
#  48   -1.98   -0.31    0.04    0.22   -0.09    0.00    0.00      -2.12    0.69   -0.28

@<TRIPOS>MOLECULE
          T542441        99
   48    49     0     0     0



@<TRIPOS>ATOM
      1 C1          9.0975   -11.3404    98.6002 C.3        1           0.0226
      2 O1          8.1561   -11.6695    97.5767 O.3        1          -0.3102
      3 C2          7.7780   -10.6670    96.7407 C.ar       1           0.1479
      4 C3          6.8627   -10.9148    95.7280 C.ar       1          -0.1998
      5 C4          6.4797    -9.8940    94.8797 C.ar       1          -0.0952
      6 C5          7.0080    -8.6263    95.0391 C.ar       1          -0.1721
      7 C6          6.5887    -7.5146    94.1121 C.3        1          -0.0927
      8 C7          5.3660    -6.8008    94.6919 C.3        1           0.0292
      9 C8          5.7181    -6.2171    96.0617 C.3        1          -0.1849
     10 N1          4.9572    -5.7172    93.7883 N.4        1          -0.5058
     11 H1          5.5504    -4.9144    93.9360 H          1           0.4252
     12 H2          5.0424    -6.0268    92.8317 H          1           0.4303
     13 C9          3.5611    -5.3515    94.0621 C.3        1          -0.0479
     14 C10         3.1355    -4.2228    93.1210 C.3        1           0.1362
     15 O2          3.6749    -4.4593    91.8191 O.3        1          -0.5435
     16 C11         1.6314    -4.1759    93.0408 C.ar       1          -0.1420
     17 C12         0.9159    -3.3935    93.9281 C.ar       1          -0.0758
     18 C13        -0.4636    -3.3504    93.8545 C.ar       1          -0.1082
     19 C14        -1.1280    -4.0895    92.8934 C.ar       1          -0.0523
     20 C15        -0.4127    -4.8710    92.0058 C.ar       1          -0.1723
     21 C16         0.9675    -4.9107    92.0765 C.ar       1          -0.0513
     22 C17        -1.1369    -5.6770    90.9585 C.3        1           0.5065
     23 F1         -2.5153    -5.4726    91.0833 F          1          -0.1707
     24 F2         -0.7189    -5.2717    89.6864 F          1          -0.1742
     25 F3         -0.8491    -7.0349    91.1333 F          1          -0.1717
     26 C18         7.9200    -8.3765    96.0479 C.ar       1          -0.0627
     27 C19         8.3022    -9.3928    96.9021 C.ar       1          -0.1429
     28 H3          9.3129   -12.2281    99.1949 H          1           0.0610
     29 H4         10.0181   -10.9769    98.1437 H          1           0.1094
     30 H5          8.6797   -10.5652    99.2425 H          1           0.0597
     31 H6          6.4503   -11.9051    95.6026 H          1           0.1372
     32 H7          5.7672   -10.0864    94.0911 H          1           0.1238
     33 H8          7.4075    -6.8031    94.0043 H          1           0.1210
     34 H9          6.3379    -7.9304    93.1362 H          1           0.0965
     35 H10         4.5472    -7.5122    94.7998 H          1           0.1402
     36 H11         4.8469    -5.7086    96.4748 H          1           0.0822
     37 H12         6.0212    -7.0212    96.7322 H          1           0.1091
     38 H13         6.5368    -5.5057    95.9539 H          1           0.0844
     39 H14         2.9203    -6.2187    93.9024 H          1           0.1380
     40 H15         3.4690    -5.0172    95.0954 H          1           0.1480
     41 H16         3.5088    -3.2721    93.5017 H          1           0.1338
     42 H17         4.6407    -4.5018    91.7953 H          1           0.3890
     43 H18         1.4349    -2.8162    94.6788 H          1           0.1333
     44 H19        -1.0226    -2.7397    94.5480 H          1           0.1462
     45 H20        -2.2060    -4.0564    92.8364 H          1           0.1490
     46 H21         1.5266    -5.5185    91.3806 H          1           0.1399
     47 H22         8.3309    -7.3854    96.1706 H          1           0.1363
     48 H23         9.0118    -9.1964    97.6922 H          1           0.1403
@<TRIPOS>BOND
     1    1    2 1
     2    1   28 1
     3    1   29 1
     4    1   30 1
     5    2    3 1
     6    3   27 ar
     7    3    4 ar
     8    4    5 ar
     9    4   31 1
    10    5    6 ar
    11    5   32 1
    12    6    7 1
    13    6   26 ar
    14    7    8 1
    15    7   33 1
    16    7   34 1
    17    8    9 1
    18    8   10 1
    19    8   35 1
    20    9   36 1
    21    9   37 1
    22    9   38 1
    23   10   11 1
    24   10   12 1
    25   10   13 1
    26   13   14 1
    27   13   39 1
    28   13   40 1
    29   14   15 1
    30   14   16 1
    31   14   41 1
    32   15   42 1
    33   16   21 ar
    34   16   17 ar
    35   17   18 ar
    36   17   43 1
    37   18   19 ar
    38   18   44 1
    39   19   20 ar
    40   19   45 1
    41   20   21 ar
    42   20   22 1
    43   21   46 1
    44   22   23 1
    45   22   24 1
    46   22   25 1
    47   26   27 ar
    48   26   47 1
    49   27   48 1
##########                 Name:              T535184
##########          Protonation:                   31
##########               SMILES:   c1cc(cc(c1)F)COc2ccc(cc2Cl)Nc3c4c(ncn3)CCN(C4)c5cc[nH+]c(n5)NCCC[NH3+]
##########            Long Name:   dro-5H-pyrido[4,3-d]pyrimidin-6-yl]pyrimidin-1-ium-2-yl]amino]propylammonium
##########          FlexRecCode: 1
##########               Number:                  155
##########   Ligand Source File: /raidb/db2/rgc/tcams/tcams-0001309.db2.gz
##########           GlobalRank: 470
##########                 Rank:                    1
##########               Setnum:                  214
##########             Matchnum:                 4008
##########                Cloud:                    1
##########        Electrostatic:           -53.321968
##########        Van der Waals:           -24.865110
##########  Ligand Polar Desolv:            17.837477
########## Ligand Apolar Desolv:            -3.298808
##########      Internal Energy:             0.000000
##########      Receptor Energy: 0.0
########## Receptor Desolvation:             0.000000
########## Receptor Hydrophobic:             0.000000
##########         Total Energy: -63.65
##########        Ligand Charge:             2.000000
##########            Arbitrary:    +999.9990
##########     heavy atom count:   38
##########           pose count:    1
##########        Ligand Energy:             0.000000
# num electro vdwattr vdwrepu polsolv apolsol rdesolv rhydroe totalscore fullpol fullapo
#   1   23.15   -1.51    0.39  -14.73    0.40    0.00    0.00       7.70  -31.84    0.86
#   2  -17.93   -0.03    0.00    5.52    0.14    0.00    0.00     -12.31   23.06    0.58
#   3  -11.84   -0.02    0.00    4.89    0.12    0.00    0.00      -6.85   23.02    0.58
#   4  -17.15   -0.04    0.00   11.64    0.29    0.00    0.00      -5.26   23.42    0.59
#   5    0.14   -1.28    0.22    0.36   -0.22    0.00    0.00      -0.77    0.80   -0.49
#   6    4.45   -0.59    0.04   -2.26   -0.07    0.00    0.00       1.57   -7.65   -0.24
#   7   -2.17   -0.91    0.21    0.89   -0.12    0.00    0.00      -2.10    2.80   -0.38
#   8    9.67   -0.69    0.05   -5.86    0.39    0.00    0.00       3.57  -26.09    1.73
#   9   -5.12   -0.67    0.11    4.41   -0.91    0.00    0.00      -2.18   23.26   -4.79
#  10    6.40   -0.93    0.20   -4.75    0.43    0.00    0.00       1.35  -20.04    1.81
#  11   -2.34   -0.67    0.08    3.26   -0.43    0.00    0.00      -0.10   15.36   -2.03
#  12    0.42   -0.38    0.02   -1.66   -0.06    0.00    0.00      -1.66  -11.30   -0.44
#  13   -0.31   -0.32    0.01    1.29   -0.12    0.00    0.00       0.55   10.59   -0.97
#  14    1.10   -0.42    0.02   -3.48    0.16    0.00    0.00      -2.62  -21.54    0.98
#  15   -0.99   -0.01    0.00    1.98    0.04    0.00    0.00       1.03   20.99    0.47
#  16    2.65   -0.88    0.10   -3.96    0.42    0.00    0.00      -1.68  -16.02    1.68
#  17   -0.30   -0.89    0.33    0.87   -0.12    0.00    0.00      -0.11    3.38   -0.48
#  18    0.27   -0.29    0.01   -0.28   -0.04    0.00    0.00      -0.33   -1.70   -0.26
#  19   -1.76   -0.37    0.01    0.46   -0.11    0.00    0.00      -1.77    3.10   -0.73
#  20    3.69   -0.41    0.04   -1.10    0.27    0.00    0.00       2.49   -8.23    1.99
#  21   -3.06   -0.29    0.01    0.44   -0.36    0.00    0.00      -3.26    3.89   -3.17
#  22    7.44   -0.33    0.01   -1.16    0.20    0.00    0.00       6.16   -8.47    1.48
#  23   -9.23   -0.60    0.05    1.46   -0.39    0.00    0.00      -8.71    7.28   -1.96
#  24   18.88   -1.62    0.52   -3.54    0.29    0.00    0.00      14.53  -12.29    1.02
#  25   -2.68   -1.22    0.33    0.61   -0.17    0.00    0.00      -3.12    2.42   -0.67
#  26    1.68   -3.14    4.17   -0.31   -0.13    0.00    0.00       2.29   -0.97   -0.40
#  27    3.26   -1.72    0.83   -0.65   -0.12    0.00    0.00       1.61   -2.25   -0.42
#  28   -1.26   -0.94    0.13    0.21   -0.08    0.00    0.00      -1.94    0.84   -0.31
#  29    0.72   -1.45    0.51   -0.90    0.26    0.00    0.00      -0.86   -2.94    0.85
#  30   -0.48   -0.84    0.10    0.38   -0.03    0.00    0.00      -0.87    1.12   -0.10
#  31    0.65   -1.24    0.14   -0.24   -0.14    0.00    0.00      -0.84   -0.67   -0.39
#  32    1.23   -1.77    0.47   -0.41   -0.19    0.00    0.00      -0.68   -1.00   -0.46
#  33   -1.52   -2.06    0.54    0.05   -0.18    0.00    0.00      -3.19    0.09   -0.34
#  34    2.61   -1.79    0.58   -0.31   -0.29    0.00    0.00       0.80   -0.51   -0.48
#  35    2.34   -2.23    0.50   -0.58   -0.26    0.00    0.00      -0.24   -1.07   -0.47
#  36    1.18   -2.43    1.01   -0.41   -0.23    0.00    0.00      -0.88   -0.85   -0.47
#  37    1.11   -1.93    0.76   -0.39   -0.17    0.00    0.00      -0.61   -1.00   -0.45
#  38    0.40   -0.63    0.07   -0.19   -0.06    0.00    0.00      -0.41   -0.95   -0.30
#  39    0.03   -3.37    5.80   -0.16   -0.19    0.00    0.00       2.11   -0.85   -0.97
#  40    1.24   -0.45    0.03   -0.23   -0.08    0.00    0.00       0.51   -1.32   -0.45
#  41    4.82   -0.55    0.03   -0.83   -0.07    0.00    0.00       3.40   -4.57   -0.40
#  42   -3.83   -0.80    0.16    1.23   -0.11    0.00    0.00      -3.34    4.55   -0.39
#  43   -4.71   -0.54    0.17    3.04   -0.12    0.00    0.00      -2.16    7.08   -0.28
#  44   -6.95   -0.80    0.48    3.36   -0.13    0.00    0.00      -4.04    7.15   -0.28
#  45   -2.89   -0.14    0.01    0.67   -0.04    0.00    0.00      -2.39    4.61   -0.28
#  46   -2.23   -0.12    0.00    0.44   -0.03    0.00    0.00      -1.94    4.54   -0.28
#  47   -2.20   -0.28    0.03    1.48   -0.07    0.00    0.00      -1.05    5.57   -0.27
#  48   -2.10   -0.84    1.16    1.86   -0.09    0.00    0.00       0.00    5.68   -0.27
#  49   -6.71   -0.01    0.00    1.82    0.06    0.00    0.00      -4.84   16.63    0.58
#  50   -0.28   -0.05    0.00    0.35   -0.01    0.00    0.00       0.00    6.83   -0.21
#  51   -0.29   -0.05    0.00    0.57   -0.01    0.00    0.00       0.22   12.41   -0.28
#  52   -0.21   -0.27    0.09    0.33   -0.05    0.00    0.00      -0.11    1.91   -0.28
#  53   -0.43   -0.84    1.20    1.09   -0.07    0.00    0.00       0.95    3.90   -0.24
#  54   -0.27   -0.04    0.00    0.07   -0.01    0.00    0.00      -0.25    1.68   -0.28
#  55   -0.31   -0.11    0.01    0.27   -0.03    0.00    0.00      -0.19    2.22   -0.28
#  56   -0.89   -0.05    0.00    0.17   -0.02    0.00    0.00      -0.79    2.72   -0.28
#  57  -16.36   -0.07    0.00    4.03    0.17    0.00    0.00     -12.23   11.41    0.48
#  58   -5.42   -1.39    4.05    0.82   -0.09    0.00    0.00      -2.02    2.05   -0.22
#  59   -2.69   -0.32    0.09    0.51   -0.05    0.00    0.00      -2.46    2.38   -0.22
#  60   -0.12   -0.42    0.10    0.48   -0.08    0.00    0.00      -0.04    1.52   -0.26
#  61   -0.55   -0.18    0.02    0.22   -0.04    0.00    0.00      -0.53    1.44   -0.26
#  62   -0.78   -0.52    0.20    0.42   -0.09    0.00    0.00      -0.77    1.30   -0.28
#  63   -2.95   -0.62    0.17    0.56   -0.15    0.00    0.00      -2.99    1.06   -0.28
#  64   -1.75   -0.56    0.19    0.84   -0.12    0.00    0.00      -1.40    1.93   -0.28
#  65   -1.30   -0.43    0.21    0.57   -0.08    0.00    0.00      -1.03    1.99   -0.28
#  66   -1.43   -0.04    0.00    0.12   -0.01    0.00    0.00      -1.36    3.24   -0.28
#  67   -4.30   -0.83    0.75    1.70   -0.06    0.00    0.00      -2.75    5.03   -0.18
#  68   -2.77   -0.16    0.02    0.50   -0.04    0.00    0.00      -2.45    3.44   -0.28

@<TRIPOS>MOLECULE
          T535184        31
   68    72     0     0     0



@<TRIPOS>ATOM
      1 N1          5.4117    -4.9194    94.9621 N.4        1          -0.6376
      2 H1          5.9279    -5.4203    94.2546 H          1           0.4395
      3 H2          5.1176    -5.5621    95.6822 H          1           0.4395
      4 H3          6.0004    -4.2070    95.3671 H          1           0.4473
      5 C1          4.2308    -4.2916    94.3543 C.3        1          -0.0038
      6 C2          3.3380    -5.3717    93.7403 C.3        1          -0.1673
      7 C3          2.1082    -4.7177    93.1073 C.3        1           0.0990
      8 N2          1.2533    -5.7520    92.5193 N.pl3      1          -0.6874
      9 C4          1.4389    -6.1374    91.2032 C.ar       1           0.6616
     10 N3          2.5995    -5.8889    90.6150 N.ar       1          -0.5717
     11 C5          2.8085    -6.2464    89.3521 C.ar       1           0.5205
     12 C6          1.7855    -6.8896    88.6516 C.ar       1          -0.2631
     13 C7          0.5914    -7.1295    89.3023 C.ar       1           0.2092
     14 N4          0.4533    -6.7503    90.5647 N.ar       1          -0.5767
     15 H4         -0.3827    -6.9206    91.0263 H          1           0.4384
     16 N5          4.0231    -5.9849    88.7395 N.pl3      1          -0.5333
     17 C8          4.1079    -5.7391    87.2911 C.3        1           0.1036
     18 C9          4.9314    -6.8824    86.6974 C.3        1          -0.0905
     19 C10         6.1870    -7.1351    87.4871 C.ar       1           0.2212
     20 N6          7.1866    -7.7925    86.9036 N.ar       1          -0.5513
     21 C11         8.3041    -8.0484    87.5499 C.ar       1           0.3608
     22 N7          8.4871    -7.6701    88.7989 N.ar       1          -0.5563
     23 C12         7.5363    -7.0060    89.4483 C.ar       1           0.4537
     24 N8          7.7285    -6.6074    90.7618 N.pl3      1          -0.6428
     25 C13         7.3570    -7.4553    91.8123 C.ar       1           0.1126
     26 C14         7.5442    -7.0537    93.1286 C.ar       1          -0.0597
     27 C15         7.1781    -7.8903    94.1646 C.ar       1          -0.1792
     28 C16         6.6234    -9.1318    93.8911 C.ar       1           0.1395
     29 O1          6.2635    -9.9551    94.9121 O.3        1          -0.2929
     30 C17         7.2550   -10.8659    95.3914 C.3        1           0.1014
     31 C18         8.0428   -10.2141    96.4985 C.ar       1          -0.0744
     32 C19         7.3864    -9.5187    97.4965 C.ar       1          -0.1295
     33 C20         8.1103    -8.9201    98.5134 C.ar       1           0.0982
     34 F1          7.4698    -8.2404    99.4896 F          1          -0.1351
     35 C21         9.4915    -9.0189    98.5295 C.ar       1          -0.1386
     36 C22        10.1455    -9.7147    97.5307 C.ar       1          -0.0903
     37 C23         9.4210   -10.3169    96.5186 C.ar       1          -0.1034
     38 C24         6.4348    -9.5340    92.5762 C.ar       1          -0.0519
     39 Cl1         5.7393   -11.0876    92.2349 Cl         1          -0.0397
     40 C25         6.7960    -8.6955    91.5386 C.ar       1          -0.0945
     41 C26         6.3388    -6.7150    88.7859 C.ar       1          -0.2843
     42 C27         5.2693    -5.9375    89.5133 C.3        1           0.1632
     43 H5          3.6731    -3.7503    95.1186 H          1           0.1412
     44 H6          4.5485    -3.5972    93.5764 H          1           0.1412
     45 H7          3.8958    -5.9128    92.9759 H          1           0.1075
     46 H8          3.0205    -6.0659    94.5182 H          1           0.1075
     47 H9          1.5505    -4.1766    93.8716 H          1           0.0944
     48 H10         2.4258    -4.0234    92.3293 H          1           0.0945
     49 H11         0.5572    -6.1666    93.0526 H          1           0.4422
     50 H12         1.9249    -7.1921    87.6243 H          1           0.1860
     51 H13        -0.2199    -7.6246    88.7894 H          1           0.2186
     52 H14         3.1090    -5.7333    86.8547 H          1           0.1027
     53 H15         4.6030    -4.7863    87.1030 H          1           0.1197
     54 H16         4.3271    -7.7894    86.6914 H          1           0.1211
     55 H17         5.2017    -6.6301    85.6720 H          1           0.0998
     56 H18         9.0931    -8.5838    87.0427 H          1           0.2074
     57 H19         8.1203    -5.7410    90.9534 H          1           0.4168
     58 H20         7.9764    -6.0872    93.3420 H          1           0.1394
     59 H21         7.3242    -7.5779    95.1880 H          1           0.1440
     60 H22         6.7693   -11.7647    95.7715 H          1           0.0807
     61 H23         7.9271   -11.1333    94.5760 H          1           0.0775
     62 H24         6.3092    -9.4419    97.4827 H          1           0.1369
     63 H25        10.0573    -8.5520    99.3221 H          1           0.1410
     64 H26        11.2227    -9.7917    97.5429 H          1           0.1397
     65 H27         9.9326   -10.8646    95.7411 H          1           0.1329
     66 H28         6.6456    -9.0065    90.5154 H          1           0.1417
     67 H29         5.5851    -4.9008    89.6299 H          1           0.1024
     68 H30         5.1036    -6.3791    90.4960 H          1           0.1090
@<TRIPOS>BOND
     1    1    2 1
     2    1    3 1
     3    1    4 1
     4    1    5 1
     5    5    6 1
     6    5   43 1
     7    5   44 1
     8    6    7 1
     9    6   45 1
    10    6   46 1
    11    7    8 1
    12    7   47 1
    13    7   48 1
    14    8    9 1
    15    8   49 1
    16    9   14 ar
    17    9   10 ar
    18   10   11 ar
    19   11   12 ar
    20   11   16 1
    21   12   13 ar
    22   12   50 1
    23   13   14 ar
    24   13   51 1
    25   14   15 1
    26   16   42 1
    27   16   17 1
    28   17   18 1
    29   17   52 1
    30   17   53 1
    31   18   19 1
    32   18   54 1
    33   18   55 1
    34   19   41 ar
    35   19   20 ar
    36   20   21 ar
    37   21   22 ar
    38   21   56 1
    39   22   23 ar
    40   23   24 1
    41   23   41 ar
    42   24   25 1
    43   24   57 1
    44   25   40 ar
    45   25   26 ar
    46   26   27 ar
    47   26   58 1
    48   27   28 ar
    49   27   59 1
    50   28   29 1
    51   28   38 ar
    52   29   30 1
    53   30   31 1
    54   30   60 1
    55   30   61 1
    56   31   37 ar
    57   31   32 ar
    58   32   33 ar
    59   32   62 1
    60   33   34 1
    61   33   35 ar
    62   35   36 ar
    63   35   63 1
    64   36   37 ar
    65   36   64 1
    66   37   65 1
    67   38   39 1
    68   38   40 ar
    69   40   66 1
    70   41   42 1
    71   42   67 1
    72   42   68 1
##########                 Name:              T528019
##########          Protonation:                   31
##########               SMILES:   COc1ccc(cc1N2CC[NH+](CC2)CCCNC(=O)c3ccc(s3)c4[nH]c5cc(c(cc5n4)F)Cl)Cl
##########            Long Name:   -chloro-2-methoxy-phenyl)piperazin-1-ium-1-yl]propyl]thiophene-2-carboxamide
##########          FlexRecCode: 1
##########               Number:                  155
##########   Ligand Source File: /raidb/db2/rgc/tcams/tcams-0000363.db2.gz
##########           GlobalRank: 472
##########                 Rank:                    1
##########               Setnum:                   15
##########             Matchnum:                  670
##########                Cloud:                    1
##########        Electrostatic:           -30.900269
##########        Van der Waals:           -37.906773
##########  Ligand Polar Desolv:             9.821304
########## Ligand Apolar Desolv:            -4.649346
##########      Internal Energy:             0.000000
##########      Receptor Energy: 0.0
########## Receptor Desolvation:             0.000000
########## Receptor Hydrophobic:             0.000000
##########         Total Energy: -63.64
##########        Ligand Charge:             1.000000
##########            Arbitrary:    +999.9990
##########     heavy atom count:   37
##########           pose count:    1
##########        Ligand Energy:             0.000000
# num electro vdwattr vdwrepu polsolv apolsol rdesolv rhydroe totalscore fullpol fullapo
#   1   -0.47   -2.89    1.23    0.13    0.02    0.00    0.00      -1.97    0.21    0.03
#   2    5.46   -1.67    0.19   -2.76    0.50    0.00    0.00       1.72   -5.00    0.91
#   3   -1.81   -1.74    0.31    0.97   -0.16    0.00    0.00      -2.43    1.88   -0.31
#   4    2.71   -1.96    0.45   -1.33   -0.22    0.00    0.00      -0.35   -2.55   -0.42
#   5    0.55   -1.82    0.41   -0.58   -0.25    0.00    0.00      -1.68   -1.09   -0.46
#   6    0.45   -1.68    0.30   -0.53   -0.16    0.00    0.00      -1.61   -1.01   -0.30
#   7    0.48   -4.37    1.34   -0.51   -0.56    0.00    0.00      -3.62   -0.91   -0.99
#   8    0.29   -1.97    0.50   -0.46   -0.18    0.00    0.00      -1.83   -1.13   -0.45
#   9   -1.01   -1.69    0.35    1.11   -0.22    0.00    0.00      -1.46    2.82   -0.55
#  10    5.19   -1.47    0.20   -5.77    0.54    0.00    0.00      -1.31  -15.47    1.46
#  11   -1.11   -0.70    0.12    0.83   -0.14    0.00    0.00      -1.01    2.83   -0.49
#  12    0.46   -0.56    0.03    0.07   -0.12    0.00    0.00      -0.12    0.23   -0.40
#  13    7.99   -0.78    0.04   -4.01    0.09    0.00    0.00       3.34  -12.06    0.27
#  14   -6.69   -0.01    0.00    2.30    0.07    0.00    0.00      -4.33   17.04    0.54
#  15    0.16   -1.01    0.12    0.20   -0.15    0.00    0.00      -0.69    0.46   -0.35
#  16    4.69   -1.53    0.42   -2.20   -0.10    0.00    0.00       1.29   -4.69   -0.22
#  17   -3.02   -0.67    0.04    0.82   -0.15    0.00    0.00      -2.98    2.31   -0.43
#  18   16.60   -0.96    0.08   -4.00    0.69    0.00    0.00      12.40  -13.51    2.33
#  19  -10.48   -0.57    0.02    1.53   -0.13    0.00    0.00      -9.63    7.39   -0.65
#  20    5.50   -0.45    0.02   -0.72    0.07    0.00    0.00       4.42   -4.16    0.41
#  21    3.23   -0.75    0.09   -0.58   -0.07    0.00    0.00       1.92   -2.58   -0.32
#  22    1.32   -2.56    1.80   -0.37   -0.16    0.00    0.00       0.03   -1.09   -0.47
#  23    0.62   -2.24    1.05   -0.28   -0.16    0.00    0.00      -1.02   -0.85   -0.47
#  24    0.20   -0.69    0.08   -0.34   -0.07    0.00    0.00      -0.82   -1.58   -0.31
#  25   -0.59   -0.50    0.02    0.64   -0.10    0.00    0.00      -0.53    5.03   -0.80
#  26   -0.73   -0.59    0.06    0.54   -0.42    0.00    0.00      -1.13    2.86   -2.20
#  27    0.93   -1.46    0.56   -0.46    0.56    0.00    0.00       0.14   -1.73    2.12
#  28   -0.16   -0.91    0.11    0.03   -0.20    0.00    0.00      -1.13    0.12   -0.79
#  29    0.18   -1.51    0.29   -0.12   -0.18    0.00    0.00      -1.34   -0.30   -0.47
#  30   -0.22   -1.61    0.38    0.06   -0.13    0.00    0.00      -1.52    0.16   -0.34
#  31    0.23   -1.79    0.66   -0.05   -0.24    0.00    0.00      -1.19   -0.10   -0.47
#  32    0.07   -0.79    0.09   -0.09   -0.07    0.00    0.00      -0.79   -0.37   -0.30
#  33    0.03   -1.58    0.23   -0.05   -0.25    0.00    0.00      -1.63   -0.21   -0.97
#  34    0.10   -0.38    0.02   -0.03   -0.06    0.00    0.00      -0.35   -0.26   -0.46
#  35   -0.09   -0.40    0.02    0.06   -0.12    0.00    0.00      -0.53    0.43   -0.78
#  36    0.92   -0.25    0.00   -0.62    0.13    0.00    0.00       0.17   -5.78    1.18
#  37    0.51   -1.22    0.31   -0.07   -0.16    0.00    0.00      -0.63   -0.16   -0.38
#  38   -1.16   -1.58    0.57    1.32   -0.23    0.00    0.00      -1.08    2.93   -0.50
#  39   -1.35   -1.43    1.11    0.52   -0.17    0.00    0.00      -1.33    0.81   -0.27
#  40   -1.71   -1.30    1.27    0.48   -0.16    0.00    0.00      -1.42    0.78   -0.26
#  41   -2.48   -1.39    2.91    1.57   -0.16    0.00    0.00       0.45    2.75   -0.28
#  42   -2.62   -0.48    0.12    0.94   -0.11    0.00    0.00      -2.16    1.93   -0.22
#  43   -1.09   -0.45    0.13    0.49   -0.13    0.00    0.00      -1.05    1.01   -0.28
#  44    0.15   -0.55    0.18    0.78   -0.10    0.00    0.00       0.47    2.21   -0.28
#  45   -1.17   -0.18    0.02    0.23   -0.04    0.00    0.00      -1.15    1.41   -0.27
#  46    0.03   -0.48    0.52    0.60   -0.06    0.00    0.00       0.60    2.96   -0.28
#  47   -3.52   -0.24    0.03    0.93   -0.07    0.00    0.00      -2.88    3.61   -0.28
#  48   -3.52   -0.15    0.01    0.89   -0.04    0.00    0.00      -2.81    6.29   -0.28
#  49   -4.51   -0.54    0.19    1.90   -0.11    0.00    0.00      -3.07    4.67   -0.28
#  50   -5.37   -0.33    0.09    1.65   -0.08    0.00    0.00      -4.04    5.76   -0.28
#  51   -2.65   -0.71    0.32    1.88   -0.12    0.00    0.00      -1.28    4.53   -0.28
#  52   -3.07   -1.08    1.41    1.89   -0.10    0.00    0.00      -0.96    4.22   -0.23
#  53   -1.64   -0.14    0.00    0.17   -0.04    0.00    0.00      -1.64    1.36   -0.28
#  54   -2.19   -0.25    0.03    0.37   -0.07    0.00    0.00      -2.13    1.44   -0.28
#  55   -9.56   -0.03    0.00    2.84    0.15    0.00    0.00      -6.60   10.05    0.54
#  56   -6.16   -1.22    1.51    0.41   -0.12    0.00    0.00      -5.58    0.96   -0.28
#  57   -1.72   -1.20    1.83    0.32   -0.12    0.00    0.00      -0.89    0.75   -0.28
#  58   -0.41   -0.39    0.07    0.17   -0.12    0.00    0.00      -0.68    0.42   -0.28
#  59   -0.16   -0.03    0.00    0.09   -0.01    0.00    0.00      -0.11    2.54   -0.28
#  60   -0.56    0.00    0.00    0.23    0.02    0.00    0.00      -0.31    7.20    0.59
#  61   -2.56   -0.66    0.94    1.20   -0.09    0.00    0.00      -1.17    3.69   -0.28
#  62   -2.84   -0.60    0.27    2.64   -0.09    0.00    0.00      -0.61    6.43   -0.21
#  63   -0.27   -0.81    0.64    1.27   -0.11    0.00    0.00       0.72    3.13   -0.28
#  64   -1.23   -0.80    0.72    0.69   -0.12    0.00    0.00      -0.74    1.51   -0.27

@<TRIPOS>MOLECULE
          T528019        31
   64    68     0     0     0



@<TRIPOS>ATOM
      1 C1          8.8824    -7.1192    99.2753 C.3        1           0.0203
      2 O1          7.8939    -7.5989    98.3615 O.3        1          -0.3147
      3 C2          7.9413    -8.9192    98.0375 C.ar       1           0.1303
      4 C3          8.9138    -9.7351    98.5913 C.ar       1          -0.1890
      5 C4          8.9614   -11.0772    98.2613 C.ar       1          -0.0581
      6 C5          8.0386   -11.6092    97.3784 C.ar       1          -0.0649
      7 Cl1         8.1038   -13.2948    96.9685 Cl         1          -0.0521
      8 C6          7.0638   -10.8008    96.8220 C.ar       1          -0.0703
      9 C7          7.0083    -9.4546    97.1524 C.ar       1           0.1242
     10 N1          6.0203    -8.6354    96.5942 N.pl3      1          -0.6637
     11 C8          5.9154    -8.4626    95.1371 C.3        1           0.1220
     12 C9          5.8535    -6.9629    94.8290 C.3        1          -0.0216
     13 N2          4.7577    -6.3522    95.5922 N.4        1          -0.3790
     14 H1          3.8957    -6.8335    95.3845 H          1           0.4213
     15 C10         4.6299    -4.9380    95.2159 C.3        1          -0.0050
     16 C11         3.2372    -4.4325    95.5975 C.3        1          -0.1643
     17 C12         2.1769    -5.2538    94.8615 C.3        1           0.1252
     18 N3          2.3677    -5.1143    93.4157 N.am       1          -0.7315
     19 C13         2.6169    -6.2024    92.6607 C.2        1           0.6110
     20 O2          2.6833    -7.3010    93.1799 O.2        1          -0.5063
     21 C14         2.8079    -6.0626    91.2127 C.2        1          -0.2189
     22 C15         3.3280    -4.9906    90.5016 C.2        1          -0.0619
     23 C16         3.4125    -5.0844    89.1416 C.2        1          -0.1037
     24 C17         2.9751    -6.2478    88.5249 C.2        1          -0.0799
     25 S1          2.4385    -7.2313    89.9148 S.3        1           0.1204
     26 C18         2.9622    -6.5865    87.0924 C.2        1           0.3649
     27 N4          3.3879    -5.8057    86.1270 N.2        1          -0.4498
     28 C19         3.2327    -6.4241    84.9384 C.ar       1           0.0839
     29 C20         3.5162    -6.0510    83.6192 C.ar       1          -0.0827
     30 C21         3.2386    -6.9204    82.5880 C.ar       1           0.1111
     31 F1          3.5122    -6.5599    81.3151 F          1          -0.1165
     32 C22         2.6788    -8.1673    82.8475 C.ar       1          -0.0481
     33 Cl2         2.3372    -9.2495    81.5338 Cl         1          -0.0282
     34 C23         2.3938    -8.5494    84.1420 C.ar       1          -0.0718
     35 C24         2.6664    -7.6860    85.1938 C.ar       1           0.0587
     36 N5          2.5090    -7.7679    86.5644 N.pl3      1          -0.5870
     37 C25         5.0357    -6.4488    97.0308 C.3        1          -0.0281
     38 C26         5.0535    -7.9275    97.4477 C.3        1           0.1235
     39 H2          8.7313    -6.0536    99.4475 H          1           0.0617
     40 H3          8.7948    -7.6559   100.2201 H          1           0.0619
     41 H4          9.8750    -7.2823    98.8554 H          1           0.1041
     42 H5          9.6357    -9.3229    99.2809 H          1           0.1436
     43 H6          9.7210   -11.7116    98.6937 H          1           0.1435
     44 H7          6.3442   -11.2182    96.1332 H          1           0.1427
     45 H8          6.7881    -8.9003    94.6525 H          1           0.1152
     46 H9          5.0094    -8.9485    94.7749 H          1           0.0794
     47 H10         6.7970    -6.4949    95.1099 H          1           0.1345
     48 H11         5.6789    -6.8177    93.7629 H          1           0.1364
     49 H12         5.3852    -4.3527    95.7402 H          1           0.1343
     50 H13         4.7718    -4.8340    94.1400 H          1           0.1367
     51 H14         3.0952    -4.5363    96.6733 H          1           0.0964
     52 H15         3.1425    -3.3830    95.3182 H          1           0.0955
     53 H16         2.2718    -6.3032    95.1409 H          1           0.0835
     54 H17         1.1847    -4.8937    95.1335 H          1           0.0841
     55 H18         2.3147    -4.2385    93.0017 H          1           0.4021
     56 H19         3.6592    -4.0992    91.0135 H          1           0.1603
     57 H20         3.8117    -4.2684    88.5574 H          1           0.1639
     58 H21         3.9508    -5.0845    83.4108 H          1           0.1598
     59 H22         1.9588    -9.5187    84.3365 H          1           0.1494
     60 H23         2.1447    -8.5187    87.0591 H          1           0.4282
     61 H24         6.0039    -5.9964    97.2450 H          1           0.1352
     62 H25         4.2585    -5.9248    97.5872 H          1           0.1344
     63 H26         4.0620    -8.3604    97.3149 H          1           0.0793
     64 H27         5.3563    -8.0115    98.4914 H          1           0.1141
@<TRIPOS>BOND
     1    1    2 1
     2    1   39 1
     3    1   40 1
     4    1   41 1
     5    2    3 1
     6    3    9 ar
     7    3    4 ar
     8    4    5 ar
     9    4   42 1
    10    5    6 ar
    11    5   43 1
    12    6    7 1
    13    6    8 ar
    14    8    9 ar
    15    8   44 1
    16    9   10 1
    17   10   38 1
    18   10   11 1
    19   11   12 1
    20   11   45 1
    21   11   46 1
    22   12   13 1
    23   12   47 1
    24   12   48 1
    25   13   14 1
    26   13   15 1
    27   13   37 1
    28   15   16 1
    29   15   49 1
    30   15   50 1
    31   16   17 1
    32   16   51 1
    33   16   52 1
    34   17   18 1
    35   17   53 1
    36   17   54 1
    37   18   19 am
    38   18   55 1
    39   19   20 2
    40   19   21 1
    41   21   25 1
    42   21   22 2
    43   22   23 1
    44   22   56 1
    45   23   24 2
    46   23   57 1
    47   24   25 1
    48   24   26 1
    49   26   36 1
    50   26   27 2
    51   27   28 1
    52   28   35 ar
    53   28   29 ar
    54   29   30 ar
    55   29   58 1
    56   30   31 1
    57   30   32 ar
    58   32   33 1
    59   32   34 ar
    60   34   35 ar
    61   34   59 1
    62   35   36 1
    63   36   60 1
    64   37   38 1
    65   37   61 1
    66   37   62 1
    67   38   63 1
    68   38   64 1
##########                 Name:              T540912
##########          Protonation:                   90
##########               SMILES:   CCOc1c(cc(cc1Br)Br)C[NH2+]CCCC[NH+]=c2[nH]c3ccccc3[nH]2
##########            Long Name:   xy-phenyl)methyl-[4-(1,3-dihydrobenzimidazol-2-ylideneammonio)butyl]ammonium
##########          FlexRecCode: 1
##########               Number:                  312
##########   Ligand Source File: /raidb/db2/rgc/tcams/tcams-0002056.db2.gz
##########           GlobalRank: 472
##########                 Rank:                    1
##########               Setnum:                  288
##########             Matchnum:                 1572
##########                Cloud:                    1
##########        Electrostatic:           -43.607185
##########        Van der Waals:           -21.691076
##########  Ligand Polar Desolv:             5.472748
########## Ligand Apolar Desolv:            -3.811885
##########      Internal Energy:             0.000000
##########      Receptor Energy: 0.0
########## Receptor Desolvation:             0.000000
########## Receptor Hydrophobic:             0.000000
##########         Total Energy: -63.64
##########        Ligand Charge:             2.000000
##########            Arbitrary:    +999.9990
##########     heavy atom count:   27
##########           pose count:    1
##########        Ligand Energy:             0.000000
# num electro vdwattr vdwrepu polsolv apolsol rdesolv rhydroe totalscore fullpol fullapo
#   1    3.00   -0.44    0.04   -0.86   -0.04    0.00    0.00       1.69   -4.04   -0.21
#   2   -0.82   -0.28    0.01    0.25   -0.02    0.00    0.00      -0.86    1.47   -0.12
#   3    5.34   -0.56    0.03   -2.07    0.17    0.00    0.00       2.91   -8.98    0.73
#   4   -0.69   -0.77    0.07    1.05   -0.06    0.00    0.00      -0.40    4.55   -0.27
#   5    0.52   -0.45    0.02   -0.49   -0.06    0.00    0.00      -0.45   -3.03   -0.37
#   6   -0.18   -0.13    0.00    0.23   -0.03    0.00    0.00      -0.11    2.92   -0.39
#   7    3.93   -0.23    0.01   -2.78    0.09    0.00    0.00       1.01  -23.10    0.74
#   8   -5.86   -0.01    0.00    1.59    0.04    0.00    0.00      -4.23   22.22    0.57
#   9   -2.28   -0.01    0.00    1.83    0.05    0.00    0.00      -0.41   20.12    0.53
#  10    0.06   -0.12    0.00    0.00   -0.03    0.00    0.00      -0.09    0.06   -0.40
#  11    1.83   -0.22    0.01   -0.92   -0.03    0.00    0.00       0.67   -6.99   -0.24
#  12    1.80   -0.33    0.02   -1.10   -0.04    0.00    0.00       0.34   -5.82   -0.22
#  13   -1.92   -0.48    0.03    0.64   -0.10    0.00    0.00      -1.82    2.72   -0.41
#  14   24.46   -1.92    0.94   -7.26    0.49    0.00    0.00      16.72  -24.18    1.64
#  15  -24.01   -0.10    0.01    6.80    0.20    0.00    0.00     -17.10   19.39    0.57
#  16  -23.26   -1.47    0.70    7.96   -1.59    0.00    0.00     -17.66   24.85   -4.95
#  17   11.83   -0.72    0.03   -4.94    0.29    0.00    0.00       6.49  -19.57    1.16
#  18   -1.52   -0.96    0.06    0.81   -0.27    0.00    0.00      -1.88    2.35   -0.77
#  19    1.10   -1.35    0.14   -1.03   -0.19    0.00    0.00      -1.34   -2.58   -0.48
#  20    1.12   -1.75    0.34   -1.50   -0.23    0.00    0.00      -2.03   -3.06   -0.47
#  21    1.38   -2.84    2.04   -1.55   -0.24    0.00    0.00      -1.20   -3.01   -0.47
#  22    2.11   -2.81    1.37   -1.38   -0.24    0.00    0.00      -0.95   -2.75   -0.48
#  23   -2.34   -1.58    0.25    0.91   -0.33    0.00    0.00      -3.09    2.12   -0.77
#  24   26.31   -3.78    8.20   -8.72    0.54    0.00    0.00      22.56  -19.41    1.21
#  25    0.09   -0.58    0.04   -0.05   -0.09    0.00    0.00      -0.59   -0.26   -0.44
#  26    0.30   -1.32    0.26   -0.98   -0.11    0.00    0.00      -1.85   -2.72   -0.30
#  27   -0.01   -5.49    2.00   -0.82   -0.51    0.00    0.00      -4.84   -1.77   -1.10
#  28    0.07   -2.55    1.86   -0.67   -0.18    0.00    0.00      -1.47   -1.65   -0.45
#  29    0.57   -1.66    0.51   -1.08   -0.10    0.00    0.00      -1.77   -3.17   -0.30
#  30   -0.34   -6.22    3.04   -0.78   -0.48    0.00    0.00      -4.78   -1.72   -1.06
#  31   -1.23   -0.09    0.00    0.13   -0.02    0.00    0.00      -1.20    1.48   -0.28
#  32   -1.61   -0.32    0.11    1.01   -0.07    0.00    0.00      -0.86    4.36   -0.28
#  33   -1.57   -0.12    0.01    0.07   -0.04    0.00    0.00      -1.65    0.47   -0.28
#  34   -0.96   -0.10    0.00    0.37   -0.03    0.00    0.00      -0.71    3.80   -0.26
#  35   -0.66   -0.05    0.00   -0.01   -0.01    0.00    0.00      -0.72   -0.19   -0.26
#  36   -0.23   -0.02    0.00    0.23   -0.01    0.00    0.00      -0.04    7.33   -0.24
#  37   -0.56   -0.02    0.00    0.29   -0.01    0.00    0.00      -0.29    9.93   -0.27
#  38   -0.38   -0.03    0.00    0.23   -0.01    0.00    0.00      -0.19    7.26   -0.28
#  39   -0.76   -0.03    0.00    0.26   -0.01    0.00    0.00      -0.54    8.26   -0.28
#  40   -0.68   -0.08    0.00    0.41   -0.02    0.00    0.00      -0.36    5.15   -0.28
#  41   -2.00   -0.09    0.00    0.38   -0.02    0.00    0.00      -1.73    4.51   -0.28
#  42   -1.46   -0.16    0.01    0.77   -0.05    0.00    0.00      -0.88    4.21   -0.28
#  43   -0.64   -0.06    0.00    0.25   -0.02    0.00    0.00      -0.46    4.46   -0.28
#  44   -1.89   -0.22    0.04    0.98   -0.05    0.00    0.00      -1.14    5.11   -0.28
#  45   -1.56   -0.09    0.00    0.38   -0.02    0.00    0.00      -1.29    4.94   -0.28
#  46   -6.02   -0.01    0.00    2.01    0.06    0.00    0.00      -3.96   17.83    0.57
#  47   -0.94   -0.44    0.12    1.53   -0.09    0.00    0.00       0.18    4.55   -0.28
#  48   -2.21   -0.43    0.08    1.15   -0.12    0.00    0.00      -1.54    2.78   -0.28
#  49   -3.07   -0.72    0.33    1.29   -0.14    0.00    0.00      -2.31    2.58   -0.28
#  50   -4.53   -0.78    0.37    2.29   -0.17    0.00    0.00      -2.82    3.87   -0.28
#  51  -32.09   -0.40    0.55    7.34    0.26    0.00    0.00     -24.33   16.67    0.59
#  52   -0.31   -0.06    0.00    0.45   -0.02    0.00    0.00       0.06    7.76   -0.28
#  53   -0.82   -0.76    0.85    0.54   -0.11    0.00    0.00      -0.30    1.34   -0.28

@<TRIPOS>MOLECULE
          T540912        90
   53    55     0     0     0



@<TRIPOS>ATOM
      1 C1          8.6321    -6.8463    89.3053 C.3        1          -0.1528
      2 C2          8.0491    -6.9666    87.8957 C.3        1           0.0551
      3 O1          6.8755    -6.1576    87.7950 O.3        1          -0.3395
      4 C3          6.2309    -6.1516    86.5982 C.ar       1           0.1589
      5 C4          5.2264    -7.0743    86.3458 C.ar       1          -0.1778
      6 C5          4.8482    -8.0840    87.3986 C.3        1           0.0558
      7 N1          4.7389    -7.4151    88.7018 N.4        1          -0.5097
      8 H1          5.6255    -6.9963    88.9405 H          1           0.4299
      9 H2          4.0305    -6.6982    88.6536 H          1           0.4338
     10 C6          4.3704    -8.3994    89.7282 C.3        1          -0.0091
     11 C7          4.2565    -7.7026    91.0856 C.3        1          -0.1492
     12 C8          3.1823    -6.6157    91.0123 C.3        1          -0.1326
     13 C9          3.0685    -5.9189    92.3697 C.3        1           0.0927
     14 N2          4.3556    -5.3109    92.7160 N.pl3      1          -0.6528
     15 H3          4.7444    -4.6359    92.1380 H          1           0.4435
     16 C10         4.9797    -5.6778    93.8034 C.cat      1           0.6659
     17 N3          4.5404    -6.6217    94.6967 N.pl3      1          -0.5805
     18 C11         5.4834    -6.7258    95.7185 C.ar       1           0.0775
     19 C12         5.5502    -7.5088    96.8618 C.ar       1          -0.0855
     20 C13         6.6323    -7.3946    97.7127 C.ar       1          -0.0758
     21 C14         7.6507    -6.5014    97.4293 C.ar       1          -0.0753
     22 C15         7.5929    -5.7173    96.2938 C.ar       1          -0.0841
     23 C16         6.5105    -5.8257    95.4327 C.ar       1           0.0807
     24 N4          6.1851    -5.1868    94.2368 N.pl3      1          -0.5807
     25 C17         4.5728    -7.0665    85.1284 C.ar       1          -0.0340
     26 C18         4.9190    -6.1401    84.1617 C.ar       1          -0.0957
     27 Br1         4.0218    -6.1325    82.4971 Br         1           0.0058
     28 C19         5.9203    -5.2188    84.4108 C.ar       1          -0.0151
     29 C20         6.5729    -5.2188    85.6293 C.ar       1          -0.1119
     30 Br2         7.9361    -3.9539    85.9727 Br         1           0.0121
     31 H4          9.5273    -7.4634    89.3820 H          1           0.0894
     32 H5          8.8896    -5.8061    89.5043 H          1           0.0590
     33 H6          7.8945    -7.1838    90.0333 H          1           0.0754
     34 H7          8.7866    -6.6290    87.1675 H          1           0.0608
     35 H8          7.7915    -8.0068    87.6966 H          1           0.0739
     36 H9          3.8905    -8.5364    87.1409 H          1           0.1409
     37 H10         5.6135    -8.8584    87.4508 H          1           0.1472
     38 H11         3.4127    -8.8517    89.4705 H          1           0.1363
     39 H12         5.1356    -9.1739    89.7803 H          1           0.1376
     40 H13         3.9831    -8.4331    91.8471 H          1           0.0977
     41 H14         5.2141    -7.2502    91.3433 H          1           0.0978
     42 H15         3.4558    -5.8853    90.2508 H          1           0.0960
     43 H16         2.2247    -7.0680    90.7547 H          1           0.0961
     44 H17         2.3032    -5.1445    92.3175 H          1           0.0996
     45 H18         2.7951    -6.6492    93.1312 H          1           0.0996
     46 H19         3.7161    -7.1285    94.6295 H          1           0.4538
     47 H20         4.7570    -8.2064    97.0865 H          1           0.1493
     48 H21         6.6836    -8.0044    98.6025 H          1           0.1565
     49 H22         8.4938    -6.4168    98.0990 H          1           0.1568
     50 H23         8.3892    -5.0209    96.0763 H          1           0.1508
     51 H24         6.7179    -4.5105    93.7898 H          1           0.4579
     52 H25         3.7904    -7.7852    84.9324 H          1           0.1561
     53 H26         6.1892    -4.4964    83.6544 H          1           0.1619
@<TRIPOS>BOND
     1    1    2 1
     2    1   31 1
     3    1   32 1
     4    1   33 1
     5    2    3 1
     6    2   34 1
     7    2   35 1
     8    3    4 1
     9    4   29 ar
    10    4    5 ar
    11    5    6 1
    12    5   25 ar
    13    6    7 1
    14    6   36 1
    15    6   37 1
    16    7    8 1
    17    7    9 1
    18    7   10 1
    19   10   11 1
    20   10   38 1
    21   10   39 1
    22   11   12 1
    23   11   40 1
    24   11   41 1
    25   12   13 1
    26   12   42 1
    27   12   43 1
    28   13   14 1
    29   13   44 1
    30   13   45 1
    31   14   15 1
    32   14   16 2
    33   16   24 1
    34   16   17 1
    35   17   18 1
    36   17   46 1
    37   18   23 ar
    38   18   19 ar
    39   19   20 ar
    40   19   47 1
    41   20   21 ar
    42   20   48 1
    43   21   22 ar
    44   21   49 1
    45   22   23 ar
    46   22   50 1
    47   23   24 1
    48   24   51 1
    49   25   26 ar
    50   25   52 1
    51   26   27 1
    52   26   28 ar
    53   28   29 ar
    54   28   53 1
    55   29   30 1
##########                 Name:              T526573
##########          Protonation:                   88
##########               SMILES:   (cc1)Cn2c3ccc(cc3cn2)Nc4c5cc(sc5ncn4)C#C[C@@H]6C[C@H](C[NH2+]6)OC(=O)N7CCCC7
##########            Long Name:   ndazol-5-yl)amino]thieno[2,3-d]pyrimidin-6-yl]ethynyl]pyrrolidin-1-ium-3-yl]
##########          FlexRecCode: 1
##########               Number:                  294
##########   Ligand Source File: /raidb/db2/rgc/tcams/tcams-0000257.db2.gz
##########           GlobalRank: 474
##########                 Rank:                    1
##########               Setnum:                   59
##########             Matchnum:                 8447
##########                Cloud:                    1
##########        Electrostatic:           -39.583141
##########        Van der Waals:           -30.259615
##########  Ligand Polar Desolv:            11.411977
########## Ligand Apolar Desolv:            -5.201967
##########      Internal Energy:             0.000000
##########      Receptor Energy: 0.0
########## Receptor Desolvation:             0.000000
########## Receptor Hydrophobic:             0.000000
##########         Total Energy: -63.63
##########        Ligand Charge:             1.000000
##########            Arbitrary:    +999.9990
##########     heavy atom count:   41
##########           pose count:    1
##########        Ligand Energy:             0.000000
# num electro vdwattr vdwrepu polsolv apolsol rdesolv rhydroe totalscore fullpol fullapo
#   1    5.94   -0.46    0.02   -1.11   -0.07    0.00    0.00       4.31   -5.89   -0.37
#   2  -11.05   -0.87    0.10    2.19   -0.13    0.00    0.00      -9.77    8.47   -0.52
#   3    8.18   -0.88    0.08   -1.90    0.09    0.00    0.00       5.57   -6.16    0.28
#   4   -2.09   -0.46    0.02    0.25   -0.03    0.00    0.00      -2.31    1.03   -0.14
#   5    0.73   -0.79    0.24    0.13   -0.13    0.00    0.00       0.19    0.54   -0.52
#   6   15.63   -1.03    0.48   -4.30    0.24    0.00    0.00      11.01  -17.08    0.94
#   7   -8.04   -0.01    0.00    1.79    0.06    0.00    0.00      -6.21   16.97    0.54
#   8  -17.10   -0.04    0.00    4.61    0.13    0.00    0.00     -12.38   20.11    0.58
#   9   -6.09   -0.92    0.31    2.24   -0.12    0.00    0.00      -4.57    6.86   -0.36
#  10    3.92   -0.64    0.04   -1.27   -0.09    0.00    0.00       1.96   -3.71   -0.27
#  11    5.22   -1.04    0.10   -0.62   -0.22    0.00    0.00       3.44   -1.89   -0.66
#  12   -0.85   -1.16    0.13   -0.81   -0.26    0.00    0.00      -2.95   -2.32   -0.75
#  13    1.45   -1.31    0.13   -0.14   -0.12    0.00    0.00       0.01   -0.38   -0.31
#  14    0.29   -1.25    0.12   -0.46   -0.16    0.00    0.00      -1.45   -1.26   -0.45
#  15    2.19   -1.62    0.36   -1.01   -0.20    0.00    0.00      -0.29   -2.10   -0.42
#  16   -3.80   -1.75    0.19    2.16   -1.15    0.00    0.00      -4.35    3.76   -2.00
#  17    6.79   -1.88    0.30   -3.48    0.53    0.00    0.00       2.26   -6.71    1.03
#  18   -1.08   -1.84    0.43    0.38   -0.28    0.00    0.00      -2.40    0.89   -0.67
#  19    0.70   -1.91    0.86   -0.13   -0.14    0.00    0.00      -0.63   -0.36   -0.40
#  20    0.78   -1.35    0.34   -0.21   -0.13    0.00    0.00      -0.56   -0.74   -0.47
#  21   -0.22   -2.18    1.36    0.09   -0.23    0.00    0.00      -1.18    0.28   -0.75
#  22   -0.53   -1.57    0.66   -0.28    0.30    0.00    0.00      -1.42   -1.02    1.08
#  23   -0.01   -0.35    0.04    0.11   -0.08    0.00    0.00      -0.30    0.67   -0.49
#  24    0.18   -0.39    0.03   -0.05   -0.05    0.00    0.00      -0.29   -0.38   -0.38
#  25    0.52   -0.48    0.06   -0.07   -0.06    0.00    0.00      -0.03   -0.47   -0.45
#  26    0.91   -0.50    0.02   -0.11   -0.09    0.00    0.00       0.23   -0.59   -0.47
#  27    0.46   -0.53    0.02   -0.12   -0.12    0.00    0.00      -0.29   -0.49   -0.47
#  28    0.05   -0.45    0.03   -0.07   -0.08    0.00    0.00      -0.51   -0.42   -0.47
#  29   -0.02   -0.36    0.02   -0.04   -0.06    0.00    0.00      -0.46   -0.30   -0.45
#  30   -0.84   -2.11    1.12   -0.22    0.45    0.00    0.00      -1.61   -0.61    1.25
#  31    0.01   -3.72    3.55    0.17   -0.46    0.00    0.00      -0.46    0.39   -1.08
#  32    0.70   -3.44    2.90   -0.41   -0.17    0.00    0.00      -0.41   -1.05   -0.44
#  33    0.52   -2.88    1.76   -0.17   -0.20    0.00    0.00      -0.98   -0.42   -0.47
#  34    2.81   -3.61    1.63   -2.17    0.91    0.00    0.00      -0.42   -3.44    1.45
#  35   -2.23   -4.12    2.38    1.09   -2.01    0.00    0.00      -4.89    1.73   -3.18
#  36    6.15   -5.06    8.48   -1.27    1.22    0.00    0.00       9.53   -2.14    2.06
#  37   -1.91   -3.47    5.79    0.18   -0.37    0.00    0.00       0.22    0.35   -0.70
#  38   -2.81   -3.64    1.44    0.37   -0.45    0.00    0.00      -5.08    0.68   -0.82
#  39   11.24   -1.07    0.09   -2.64    0.91    0.00    0.00       8.53   -7.56    2.59
#  40   -2.32   -1.48    0.45    0.70   -0.23    0.00    0.00      -2.89    1.55   -0.52
#  41    3.43   -1.46    0.31   -0.94   -0.15    0.00    0.00       1.19   -1.85   -0.29
#  42    3.29   -1.04    0.16   -0.81   -0.14    0.00    0.00       1.46   -1.64   -0.29
#  43   -2.31   -0.83    0.17    0.44   -0.18    0.00    0.00      -2.70    1.25   -0.52
#  44   -1.79   -0.10    0.00    0.15   -0.02    0.00    0.00      -1.75    1.78   -0.24
#  45   -3.06   -0.10    0.00    0.48   -0.03    0.00    0.00      -2.71    4.96   -0.28
#  46   -7.16   -0.80    0.95    1.94   -0.08    0.00    0.00      -5.14    6.59   -0.28
#  47   -7.92   -0.75    1.37    3.16   -0.10    0.00    0.00      -4.23    9.28   -0.28
#  48   -4.48   -0.29    0.02    1.25   -0.09    0.00    0.00      -3.58    3.91   -0.28
#  49   -2.55   -0.16    0.00    0.28   -0.04    0.00    0.00      -2.47    1.91   -0.27
#  50   -0.94   -0.19    0.01    0.83   -0.05    0.00    0.00      -0.34    4.17   -0.26
#  51   -6.00   -0.05    0.00    3.52    0.26    0.00    0.00      -2.26    7.06    0.53
#  52   -2.34   -0.50    0.31    0.23   -0.07    0.00    0.00      -2.36    0.77   -0.22
#  53   -0.76   -0.13    0.01    0.14   -0.04    0.00    0.00      -0.79    0.95   -0.27
#  54    0.10   -0.10    0.01    0.03   -0.02    0.00    0.00       0.02    0.35   -0.28
#  55   -0.16   -0.06    0.00    0.04   -0.01    0.00    0.00      -0.19    0.82   -0.28
#  56   -0.87   -0.09    0.01    0.08   -0.02    0.00    0.00      -0.89    0.97   -0.27
#  57   -1.67   -0.11    0.00    0.11   -0.03    0.00    0.00      -1.70    1.00   -0.28
#  58   -1.05   -0.15    0.01    0.14   -0.05    0.00    0.00      -1.09    0.83   -0.28
#  59    0.04   -0.09    0.01    0.06   -0.03    0.00    0.00      -0.01    0.60   -0.28
#  60    0.06   -0.06    0.00    0.01   -0.01    0.00    0.00       0.00    0.25   -0.28
#  61    0.15   -0.76    0.42    1.12   -0.13    0.00    0.00       0.79    2.41   -0.28
#  62   -1.72   -1.09    3.24    0.96   -0.11    0.00    0.00       1.27    2.49   -0.28
#  63   -0.43   -1.14    0.83    1.42   -0.20    0.00    0.00       0.49    1.97   -0.28
#  64   -1.88   -0.63    0.51    0.46   -0.10    0.00    0.00      -1.64    1.23   -0.28
#  65   -1.70   -0.76    0.33    0.76   -0.12    0.00    0.00      -1.49    1.76   -0.28
#  66   -2.89   -0.71    0.44    0.58   -0.12    0.00    0.00      -2.70    1.37   -0.28
#  67   -2.04   -0.74    0.42    0.60   -0.13    0.00    0.00      -1.90    1.29   -0.28
#  68   -2.03   -0.56    0.43    0.27   -0.10    0.00    0.00      -2.00    0.74   -0.28
#  69   -2.25   -0.31    0.03    0.42   -0.09    0.00    0.00      -2.21    1.24   -0.28
#  70   -1.00   -0.21    0.02    0.22   -0.06    0.00    0.00      -1.04    0.95   -0.28
#  71   -2.01   -0.51    0.66    0.09   -0.06    0.00    0.00      -1.84    0.38   -0.28

@<TRIPOS>MOLECULE
          T526573        88
   71    77     0     0     0



@<TRIPOS>ATOM
      1 O1          1.3691    -6.2534    92.0008 O.2        1          -0.5616
      2 C1          1.3995    -5.3347    92.7955 C.2        1           0.6620
      3 O2          2.5662    -4.9713    93.3604 O.3        1          -0.3376
      4 C2          3.5451    -5.9961    93.5438 C.3        1           0.0892
      5 C3          4.5183    -6.0467    92.3393 C.3        1          -0.0239
      6 N1          5.7405    -6.6635    92.9155 N.4        1          -0.5115
      7 H1          5.6302    -7.6647    92.9746 H          1           0.4363
      8 H2          6.5449    -6.4345    92.3511 H          1           0.4421
      9 C4          5.8841    -6.0853    94.2692 C.3        1           0.1863
     10 C5          4.4784    -5.6554    94.7282 C.3        1          -0.1397
     11 C6          6.4254    -7.0967    95.1915 C.1        1          -0.2533
     12 C7          6.8570    -7.9033    95.9272 C.1        1           0.0580
     13 C8          7.3836    -8.8872    96.8246 C.2        1          -0.1288
     14 C9          7.7324   -10.1738    96.5605 C.2        1          -0.0368
     15 C10         8.2356   -10.9868    97.5901 C.ar       1          -0.2674
     16 C11         8.6580   -12.3470    97.5405 C.ar       1           0.5017
     17 N2          8.6037   -13.0539    96.3527 N.pl3      1          -0.6296
     18 C12         9.3298   -12.6111    95.2406 C.ar       1           0.0978
     19 C13         8.8517   -12.8634    93.9538 C.ar       1          -0.0523
     20 C14         9.5443   -12.4402    92.8567 C.ar       1          -0.1201
     21 C15        10.7431   -11.7481    93.0116 C.ar       1           0.1312
     22 N3         11.6462   -11.2084    92.1305 N.pl3      1          -0.3955
     23 C16        11.5348   -11.2443    90.6702 C.3        1           0.1807
     24 C17        11.8600    -9.8845    90.1082 C.ar       1          -0.1211
     25 C18        10.8562    -8.9496    89.9359 C.ar       1          -0.1001
     26 C19        11.1545    -7.7023    89.4204 C.ar       1          -0.1226
     27 C20        12.4566    -7.3894    89.0773 C.ar       1          -0.1081
     28 C21        13.4604    -8.3238    89.2502 C.ar       1          -0.1213
     29 C22        13.1628    -9.5698    89.7698 C.ar       1          -0.0911
     30 N4         12.6898   -10.6180    92.8507 N.2        1          -0.2394
     31 C23        12.4872   -10.7597    94.1295 C.2        1           0.0716
     32 C24        11.2348   -11.4882    94.3049 C.ar       1          -0.1645
     33 C25        10.5123   -11.9219    95.4222 C.ar       1          -0.0581
     34 N5          9.1032   -12.9253    98.6438 N.ar       1          -0.5748
     35 C26         9.1712   -12.2851    99.7971 C.ar       1           0.3919
     36 N6          8.7948   -11.0254    99.9078 N.ar       1          -0.5207
     37 C27         8.3388   -10.3709    98.8599 C.ar       1           0.1658
     38 S1          7.7507    -8.7234    98.5634 S.3        1           0.1835
     39 N7          0.2657    -4.6757    93.1072 N.am       1          -0.5937
     40 C28         0.1483    -3.5441    94.0431 C.3        1           0.0995
     41 C29        -1.3196    -3.6131    94.5134 C.3        1          -0.1351
     42 C30        -2.0050    -3.8972    93.1659 C.3        1          -0.1361
     43 C31        -1.0693    -4.9527    92.5713 C.3        1           0.1194
     44 H3          3.0654    -6.9628    93.6965 H          1           0.1265
     45 H4          4.1121    -6.6697    91.5424 H          1           0.1516
     46 H5          4.7302    -5.0420    91.9735 H          1           0.1521
     47 H6          6.5446    -5.2189    94.2348 H          1           0.1700
     48 H7          4.4576    -4.5845    94.9305 H          1           0.1315
     49 H8          4.1828    -6.2146    95.6158 H          1           0.1218
     50 H9          7.6227   -10.5705    95.5620 H          1           0.1401
     51 H10         8.0622   -13.8563    96.2902 H          1           0.4196
     52 H11         7.9233   -13.3999    93.8250 H          1           0.1372
     53 H12         9.1624   -12.6424    91.8669 H          1           0.1297
     54 H13        12.2336   -11.9793    90.2704 H          1           0.1053
     55 H14        10.5181   -11.5197    90.3902 H          1           0.1010
     56 H15         9.8389    -9.1941    90.2040 H          1           0.1205
     57 H16        10.3702    -6.9721    89.2852 H          1           0.1247
     58 H17        12.6894    -6.4150    88.6738 H          1           0.1250
     59 H18        14.4776    -8.0795    88.9818 H          1           0.1260
     60 H19        13.9478   -10.2985    89.9084 H          1           0.1254
     61 H20        13.1311   -10.4019    94.9193 H          1           0.1974
     62 H21        10.8788   -11.7232    96.4184 H          1           0.1308
     63 H22         9.5426   -12.8041   100.6684 H          1           0.2180
     64 H23         0.8276    -3.6713    94.8860 H          1           0.0763
     65 H24         0.3432    -2.6016    93.5315 H          1           0.0753
     66 H25        -1.4731    -4.4309    95.2176 H          1           0.0915
     67 H26        -1.6473    -2.6622    94.9333 H          1           0.0835
     68 H27        -3.0081    -4.2979    93.3129 H          1           0.0826
     69 H28        -2.0286    -3.0036    92.5420 H          1           0.0966
     70 H29        -1.0591    -4.8759    91.4840 H          1           0.0804
     71 H30        -1.3937    -5.9489    92.8718 H          1           0.0876
@<TRIPOS>BOND
     1    1    2 2
     2    2    3 1
     3    2   39 am
     4    3    4 1
     5    4   10 1
     6    4    5 1
     7    4   44 1
     8    5    6 1
     9    5   45 1
    10    5   46 1
    11    6    7 1
    12    6    8 1
    13    6    9 1
    14    9   10 1
    15    9   11 1
    16    9   47 1
    17   10   48 1
    18   10   49 1
    19   11   12 3
    20   12   13 1
    21   13   38 1
    22   13   14 2
    23   14   15 1
    24   14   50 1
    25   15   37 ar
    26   15   16 ar
    27   16   17 1
    28   16   34 ar
    29   17   18 1
    30   17   51 1
    31   18   33 ar
    32   18   19 ar
    33   19   20 ar
    34   19   52 1
    35   20   21 ar
    36   20   53 1
    37   21   32 ar
    38   21   22 1
    39   22   23 1
    40   22   30 1
    41   23   24 1
    42   23   54 1
    43   23   55 1
    44   24   29 ar
    45   24   25 ar
    46   25   26 ar
    47   25   56 1
    48   26   27 ar
    49   26   57 1
    50   27   28 ar
    51   27   58 1
    52   28   29 ar
    53   28   59 1
    54   29   60 1
    55   30   31 2
    56   31   32 1
    57   31   61 1
    58   32   33 ar
    59   33   62 1
    60   34   35 ar
    61   35   36 ar
    62   35   63 1
    63   36   37 ar
    64   37   38 1
    65   39   43 1
    66   39   40 1
    67   40   41 1
    68   40   64 1
    69   40   65 1
    70   41   42 1
    71   41   66 1
    72   41   67 1
    73   42   43 1
    74   42   68 1
    75   42   69 1
    76   43   70 1
    77   43   71 1
##########                 Name:              T538028
##########          Protonation:                   20
##########               SMILES:   c1ccc2c(n1)c(c(cn2)F)CC[NH+]3C[C@H]([C@H](C3)O)C[NH2+]Cc4cc(c5c(c4)OCCO5)C#N
##########            Long Name:   1,5-naphthyridin-4-yl)ethyl]-4-hydroxy-pyrrolidin-1-ium-3-yl]methyl]ammonium
##########          FlexRecCode: 1
##########               Number:                  347
##########   Ligand Source File: /raidb/db2/rgc/tcams/tcams-0001772.db2.gz
##########           GlobalRank: 474
##########                 Rank:                    1
##########               Setnum:                  176
##########             Matchnum:                 3768
##########                Cloud:                    1
##########        Electrostatic:           -59.946205
##########        Van der Waals:           -22.104683
##########  Ligand Polar Desolv:            19.634857
########## Ligand Apolar Desolv:            -1.212644
##########      Internal Energy:             0.000000
##########      Receptor Energy: 0.0
########## Receptor Desolvation:             0.000000
########## Receptor Hydrophobic:             0.000000
##########         Total Energy: -63.63
##########        Ligand Charge:             2.000000
##########            Arbitrary:    +999.9990
##########     heavy atom count:   36
##########           pose count:    1
##########        Ligand Energy:             0.000000
# num electro vdwattr vdwrepu polsolv apolsol rdesolv rhydroe totalscore fullpol fullapo
#   1   -0.02   -0.03    0.00    0.01    0.00    0.00    0.00      -0.04    0.42    0.03
#   2    0.21   -0.04    0.00   -0.22    0.03    0.00    0.00      -0.02   -7.38    0.90
#   3   -0.42   -0.08    0.00    0.31   -0.03    0.00    0.00      -0.21    7.29   -0.66
#   4    0.23   -0.17    0.00   -0.24   -0.03    0.00    0.00      -0.21   -3.19   -0.46
#   5   -0.02   -0.45    0.07   -0.10   -0.06    0.00    0.00      -0.56   -0.82   -0.48
#   6   -0.11   -0.43    0.07   -0.05   -0.09    0.00    0.00      -0.60   -0.37   -0.73
#   7    1.78   -0.89    0.27   -1.41    0.36    0.00    0.00       0.12   -7.81    1.99
#   8   -1.14   -0.56    0.05    0.24   -0.19    0.00    0.00      -1.61    1.23   -0.97
#   9   -1.18   -0.30    0.01    0.21   -0.04    0.00    0.00      -1.30    1.80   -0.34
#  10    1.90   -0.23    0.01   -0.46   -0.08    0.00    0.00       1.14   -2.66   -0.45
#  11    0.68   -0.16    0.00   -0.04   -0.02    0.00    0.00       0.46   -0.62   -0.36
#  12    0.54   -0.09    0.00   -0.23   -0.01    0.00    0.00       0.21   -3.91   -0.22
#  13   -0.01   -0.14    0.00    0.13   -0.03    0.00    0.00      -0.04    1.41   -0.35
#  14    5.84   -0.32    0.01   -2.84    0.07    0.00    0.00       2.76  -17.89    0.42
#  15   -7.74   -0.01    0.00    1.63    0.04    0.00    0.00      -6.07   23.49    0.56
#  16    0.78   -0.84    0.31   -0.66   -0.09    0.00    0.00      -0.50   -2.80   -0.38
#  17   -2.31   -1.50    1.01    1.36   -0.05    0.00    0.00      -1.50    4.51   -0.18
#  18   11.98   -1.75    0.90   -8.84    0.38    0.00    0.00       2.67  -28.57    1.22
#  19    4.48   -0.95    0.55   -1.54   -0.05    0.00    0.00       2.48   -6.21   -0.21
#  20   -0.31   -0.62    0.11    0.10   -0.08    0.00    0.00      -0.80    0.39   -0.33
#  21   21.48   -2.13    2.53  -10.56    0.30    0.00    0.00      11.62  -25.88    0.73
#  22  -20.50   -0.05    0.00    8.11    0.14    0.00    0.00     -12.30   22.89    0.39
#  23  -23.60   -0.09    0.01    8.85    0.20    0.00    0.00     -14.62   24.61    0.57
#  24   -1.76   -1.11    0.14    1.63   -0.18    0.00    0.00      -1.28    3.74   -0.42
#  25    4.63   -1.27    0.12   -1.24   -0.14    0.00    0.00       2.10   -3.24   -0.37
#  26    0.86   -0.80    0.03    0.02   -0.14    0.00    0.00      -0.03    0.06   -0.44
#  27    0.21   -0.90    0.07   -0.71   -0.13    0.00    0.00      -1.46   -2.25   -0.40
#  28   -4.47   -1.39    0.25    1.94   -0.56    0.00    0.00      -4.23    4.89   -1.42
#  29    5.48   -2.62    1.43   -2.88    0.33    0.00    0.00       1.75   -6.23    0.71
#  30   -3.25   -1.08    0.09    0.25   -0.11    0.00    0.00      -4.10    0.71   -0.30
#  31    7.55   -1.33    0.39   -2.16    0.23    0.00    0.00       4.67   -5.73    0.61
#  32   -0.36   -1.05    0.17    0.09   -0.07    0.00    0.00      -1.23    0.18   -0.14
#  33   -0.36   -1.28    0.19    0.25   -0.07    0.00    0.00      -1.28    0.50   -0.14
#  34    6.52   -3.00    1.20   -3.38    0.34    0.00    0.00       1.67   -6.85    0.68
#  35   -1.41   -1.98    0.48   -0.17   -0.12    0.00    0.00      -3.21   -0.42   -0.30
#  36    1.80   -2.71    1.09   -0.23   -0.20    0.00    0.00      -0.24   -0.52   -0.46
#  37   -0.10   -0.28    0.01    0.02   -0.07    0.00    0.00      -0.42    0.09   -0.43
#  38   -0.51   -0.15    0.00    0.22   -0.05    0.00    0.00      -0.49    3.04   -0.73
#  39    0.90   -0.08    0.00   -0.51    0.11    0.00    0.00       0.43  -11.51    2.54
#  40   -0.05   -0.01    0.00    0.04    0.00    0.00    0.00      -0.02    2.98   -0.28
#  41   -0.04   -0.01    0.00    0.04    0.00    0.00    0.00      -0.02    2.26   -0.28
#  42   -0.03   -0.01    0.00    0.08   -0.01    0.00    0.00       0.04    4.43   -0.28
#  43   -0.19   -0.03    0.00    0.09   -0.01    0.00    0.00      -0.15    2.77   -0.28
#  44   -0.41   -0.14    0.02    0.22   -0.03    0.00    0.00      -0.33    2.02   -0.28
#  45   -3.49   -0.14    0.01    0.52   -0.04    0.00    0.00      -3.15    3.33   -0.28
#  46   -0.37   -0.02    0.00    0.12   -0.01    0.00    0.00      -0.28    4.99   -0.23
#  47   -0.71   -0.04    0.00    0.21   -0.01    0.00    0.00      -0.55    5.02   -0.26
#  48   -0.58   -0.03    0.00    0.21   -0.01    0.00    0.00      -0.41    6.23   -0.28
#  49   -0.80   -0.06    0.00    0.28   -0.01    0.00    0.00      -0.58    5.91   -0.27
#  50   -1.84   -0.28    0.14    1.11   -0.04    0.00    0.00      -0.90    6.93   -0.26
#  51   -2.67   -0.33    0.14    1.42   -0.06    0.00    0.00      -1.50    6.53   -0.26
#  52   -4.66   -1.19    2.29    2.31   -0.11    0.00    0.00      -1.36    6.04   -0.28
#  53  -10.35   -0.02    0.00    4.90    0.29    0.00    0.00      -5.18   20.43    1.22
#  54   -6.51   -0.91    2.13    2.44   -0.07    0.00    0.00      -2.91    9.88   -0.28
#  55   -3.16   -0.11    0.00    1.06   -0.03    0.00    0.00      -2.23   10.03   -0.28
#  56   -2.85   -0.12    0.00    0.93   -0.03    0.00    0.00      -2.07    8.29   -0.27
#  57   -3.71   -0.29    0.04    2.46   -0.07    0.00    0.00      -1.57   10.01   -0.28
#  58   -5.03   -0.66    0.20    4.45   -0.14    0.00    0.00      -1.17    9.19   -0.28
#  59   -2.20   -0.15    0.01    1.25   -0.04    0.00    0.00      -1.14    8.30   -0.28
#  60   -3.46   -0.42    0.19    0.61   -0.09    0.00    0.00      -3.16    1.95   -0.28
#  61   -2.31   -0.38    0.04    0.67   -0.11    0.00    0.00      -2.09    1.69   -0.28
#  62   -1.43   -0.44    0.18    0.35   -0.09    0.00    0.00      -1.43    1.06   -0.28
#  63   -3.27   -0.44    0.05    1.50   -0.13    0.00    0.00      -2.30    3.18   -0.28
#  64   -4.83   -1.21    1.28    4.22   -0.14    0.00    0.00      -0.67    8.70   -0.28
#  65   -2.04   -0.06    0.00    0.50   -0.02    0.00    0.00      -1.62    9.17   -0.28
#  66   -1.25   -0.10    0.01    0.75   -0.02    0.00    0.00      -0.62    8.14   -0.26

@<TRIPOS>MOLECULE
          T538028        20
   66    70     0     0     0



@<TRIPOS>ATOM
      1 C1          4.9163   -13.0125    87.3283 C.3        1           0.0403
      2 O1          4.5656   -12.1867    86.2161 O.3        1          -0.2897
      3 C2          5.1024   -10.9422    86.1800 C.ar       1           0.3795
      4 C3          4.7860   -10.0906    85.1139 C.ar       1          -0.1599
      5 C4          5.3171    -8.8369    85.0637 C.ar       1           0.0083
      6 C5          6.1810    -8.4332    86.1034 C.ar       1           0.0415
      7 N1          6.7306    -7.2166    86.1080 N.ar       1          -0.3998
      8 C6          7.5338    -6.8348    87.0709 C.ar       1           0.0973
      9 C7          7.8520    -7.6801    88.1353 C.ar       1           0.1009
     10 F1          8.6833    -7.2546    89.1117 F          1          -0.1165
     11 C8          7.3213    -8.9392    88.1886 C.ar       1          -0.1010
     12 C9          7.6498    -9.8694    89.3278 C.3        1          -0.0889
     13 C10         6.6316    -9.6768    90.4535 C.3        1           0.0009
     14 N2          6.6816    -8.2870    90.9264 N.4        1          -0.3905
     15 H1          6.7908    -7.6531    90.1489 H          1           0.4361
     16 C11         7.7754    -8.1111    91.8906 C.3        1          -0.0436
     17 C12         7.3212    -7.0223    92.8651 C.3        1           0.0793
     18 O2          7.3026    -7.5265    94.2021 O.3        1          -0.5659
     19 C13         5.8982    -6.6619    92.4079 C.3        1          -0.1393
     20 C14         4.9954    -6.3681    93.6076 C.3        1           0.0111
     21 N3          5.2423    -5.0001    94.0828 N.4        1          -0.5067
     22 H2          6.2086    -4.9093    94.3588 H          1           0.4339
     23 H3          5.0411    -4.3453    93.3421 H          1           0.4264
     24 C15         4.3756    -4.7179    95.2348 C.3        1           0.0558
     25 C16         2.9324    -4.8537    94.8227 C.ar       1          -0.1728
     26 C17         2.2970    -6.0710    94.9409 C.ar       1          -0.0416
     27 C18         0.9593    -6.1997    94.5580 C.ar       1          -0.0096
     28 C19         0.2950    -7.4624    94.6797 C.1        1           0.2336
     29 N4         -0.2322    -8.4640    94.7761 N.1        1          -0.3668
     30 C20         0.2705    -5.0877    94.0549 C.ar       1           0.1365
     31 O3         -1.0278    -5.2211    93.6771 O.3        1          -0.2892
     32 C21        -1.7840    -4.0140    93.5331 C.3        1           0.0148
     33 C22        -0.9386    -3.0093    92.7386 C.3        1           0.0168
     34 O4          0.2731    -2.7715    93.4632 O.3        1          -0.2955
     35 C23         0.9231    -3.8667    93.9440 C.ar       1           0.0618
     36 C24         2.2497    -3.7539    94.3324 C.ar       1          -0.0662
     37 C25         5.4635    -7.9582    91.6939 C.3        1           0.0064
     38 C26         6.4592    -9.3433    87.1513 C.ar       1           0.1556
     39 N5          5.9047   -10.5595    87.1498 N.ar       1          -0.5571
     40 H4          4.4204   -13.9786    87.2343 H          1           0.1053
     41 H5          5.9963   -13.1588    87.3460 H          1           0.0613
     42 H6          4.5999   -12.5300    88.2532 H          1           0.0510
     43 H7          4.1217   -10.4277    84.3320 H          1           0.1649
     44 H8          5.0828    -8.1688    84.2481 H          1           0.1697
     45 H9          7.9598    -5.8428    87.0400 H          1           0.1863
     46 H10         7.6126   -10.9008    88.9769 H          1           0.1110
     47 H11         8.6499    -9.6482    89.7006 H          1           0.1029
     48 H12         5.6316    -9.8980    90.0806 H          1           0.1384
     49 H13         6.8694   -10.3497    91.2774 H          1           0.1364
     50 H14         7.9550    -9.0426    92.4271 H          1           0.1494
     51 H15         8.6826    -7.7968    91.3744 H          1           0.1495
     52 H16         7.9759    -6.1535    92.7964 H          1           0.1179
     53 H17         7.0220    -6.8788    94.8629 H          1           0.4242
     54 H18         5.9121    -5.8194    91.7165 H          1           0.1409
     55 H19         3.9515    -6.4662    93.3094 H          1           0.1448
     56 H20         5.2126    -7.0755    94.4079 H          1           0.1467
     57 H21         4.5930    -5.4254    96.0350 H          1           0.1447
     58 H22         4.5588    -3.7030    95.5874 H          1           0.1453
     59 H23         2.8326    -6.9247    95.3289 H          1           0.1510
     60 H24        -2.7094    -4.2217    92.9958 H          1           0.1416
     61 H25        -2.0136    -3.6044    94.5167 H          1           0.0935
     62 H26        -0.7050    -3.4209    91.7566 H          1           0.0925
     63 H27        -1.4883    -2.0750    92.6249 H          1           0.1411
     64 H28         2.7547    -2.8030    94.2477 H          1           0.1520
     65 H29         4.6194    -7.7748    91.0291 H          1           0.1558
     66 H30         5.2310    -8.7426    92.4141 H          1           0.1458
@<TRIPOS>BOND
     1    1    2 1
     2    1   40 1
     3    1   41 1
     4    1   42 1
     5    2    3 1
     6    3   39 ar
     7    3    4 ar
     8    4    5 ar
     9    4   43 1
    10    5    6 ar
    11    5   44 1
    12    6   38 ar
    13    6    7 ar
    14    7    8 ar
    15    8    9 ar
    16    8   45 1
    17    9   10 1
    18    9   11 ar
    19   11   12 1
    20   11   38 ar
    21   12   13 1
    22   12   46 1
    23   12   47 1
    24   13   14 1
    25   13   48 1
    26   13   49 1
    27   14   15 1
    28   14   37 1
    29   14   16 1
    30   16   17 1
    31   16   50 1
    32   16   51 1
    33   17   18 1
    34   17   19 1
    35   17   52 1
    36   18   53 1
    37   19   20 1
    38   19   37 1
    39   19   54 1
    40   20   21 1
    41   20   55 1
    42   20   56 1
    43   21   22 1
    44   21   23 1
    45   21   24 1
    46   24   25 1
    47   24   57 1
    48   24   58 1
    49   25   36 ar
    50   25   26 ar
    51   26   27 ar
    52   26   59 1
    53   27   28 1
    54   27   30 ar
    55   28   29 3
    56   30   35 ar
    57   30   31 1
    58   31   32 1
    59   32   33 1
    60   32   60 1
    61   32   61 1
    62   33   34 1
    63   33   62 1
    64   33   63 1
    65   34   35 1
    66   35   36 ar
    67   36   64 1
    68   37   65 1
    69   37   66 1
    70   38   39 ar
##########                 Name:              T532022
##########          Protonation:                   88
##########               SMILES:   c1ccc2c(c1)c(=O)cc([nH]2)NCC[C@@H](CNCc3ccc(o3)Br)[NH2+]Cc4cc(cc(c4)Br)Br
##########            Long Name:   3-[(4-oxo-1H-quinolin-2-yl)amino]propyl]-[(3,5-dibromophenyl)methyl]ammonium
##########          FlexRecCode: 1
##########               Number:                   18
##########   Ligand Source File: /raidb/db2/rgc/tcams/tcams-0000897.db2.gz
##########           GlobalRank: 475
##########                 Rank:                    1
##########               Setnum:                  356
##########             Matchnum:                  375
##########                Cloud:                    1
##########        Electrostatic:           -33.315388
##########        Van der Waals:           -36.587738
##########  Ligand Polar Desolv:            10.349747
########## Ligand Apolar Desolv:            -4.051328
##########      Internal Energy:             0.000000
##########      Receptor Energy: 0.0
########## Receptor Desolvation:             0.000000
########## Receptor Hydrophobic:             0.000000
##########         Total Energy: -63.6
##########        Ligand Charge:             1.000000
##########            Arbitrary:    +999.9990
##########     heavy atom count:   34
##########           pose count:    1
##########        Ligand Energy:             0.000000
# num electro vdwattr vdwrepu polsolv apolsol rdesolv rhydroe totalscore fullpol fullapo
#   1   -0.08   -2.30    0.45    0.02   -0.30    0.00    0.00      -2.20    0.06   -1.12
#   2    0.02   -0.88    0.20   -0.20   -0.04    0.00    0.00      -0.90   -0.83   -0.17
#   3    0.19   -0.84    0.10   -0.57   -0.15    0.00    0.00      -1.27   -1.99   -0.51
#   4    1.01   -0.98    0.13   -1.00   -0.16    0.00    0.00      -1.00   -3.29   -0.51
#   5    0.16   -1.16    0.50    0.13   -0.08    0.00    0.00      -0.44    0.52   -0.31
#   6   -2.18   -0.65    0.10    1.05   -0.13    0.00    0.00      -1.81    3.72   -0.47
#   7   11.20   -0.62    0.03   -4.78    0.59    0.00    0.00       6.42  -21.62    2.68
#   8   -0.72   -0.76    0.12    0.16   -0.10    0.00    0.00      -1.29    0.57   -0.35
#   9   -0.98   -0.57    0.09    0.75   -0.06    0.00    0.00      -0.78    3.29   -0.27
#  10    4.63   -0.63    0.08   -1.69   -0.05    0.00    0.00       2.34   -5.85   -0.19
#  11   -1.79   -0.51    0.03    0.37   -0.09    0.00    0.00      -2.00    1.36   -0.34
#  12   13.82   -1.06    0.07   -6.90    0.63    0.00    0.00       6.56  -18.34    1.68
#  13   -6.69   -1.22    0.09    4.15   -0.81    0.00    0.00      -4.48   10.43   -2.03
#  14    6.38   -1.89    0.37   -2.12   -0.23    0.00    0.00       2.52   -4.16   -0.45
#  15   -7.50   -2.04    0.29   -0.16   -0.17    0.00    0.00      -9.58   -0.29   -0.31
#  16   11.85   -3.22    0.92    3.05    0.28    0.00    0.00      12.88    4.85    0.44
#  17    2.31   -1.83    0.53   -0.51   -0.19    0.00    0.00       0.31   -1.10   -0.41
#  18    0.34   -2.25    0.92   -0.20   -0.25    0.00    0.00      -1.44   -0.38   -0.46
#  19    1.11   -2.05    0.38   -0.64   -0.27    0.00    0.00      -1.47   -1.10   -0.47
#  20    0.43   -1.62    0.17   -0.47   -0.26    0.00    0.00      -1.76   -0.86   -0.47
#  21    0.90   -1.50    0.19   -0.88   -0.19    0.00    0.00      -1.47   -2.12   -0.46
#  22   -1.48   -1.46    0.21    1.02   -0.27    0.00    0.00      -1.97    2.70   -0.72
#  23    5.29   -1.23    0.11   -4.15    0.35    0.00    0.00       0.37  -11.85    1.01
#  24   20.56   -2.36    3.62   -5.82    0.18    0.00    0.00      16.17  -20.82    0.64
#  25  -25.88   -0.20    0.07    7.06    0.16    0.00    0.00     -18.80   20.46    0.45
#  26  -17.66   -0.04    0.00    4.20    0.10    0.00    0.00     -13.39   18.65    0.46
#  27   -0.77   -0.52    0.08    0.29   -0.07    0.00    0.00      -1.00    1.36   -0.34
#  28    3.91   -1.03    0.20   -0.55   -0.09    0.00    0.00       2.44   -2.32   -0.37
#  29    0.85   -0.92    0.13   -0.20   -0.10    0.00    0.00      -0.24   -0.82   -0.44
#  30    1.47   -0.91    0.09   -0.61   -0.09    0.00    0.00      -0.04   -2.13   -0.30
#  31    0.00   -4.98    3.55   -0.46   -0.37    0.00    0.00      -2.25   -1.35   -1.09
#  32    0.67   -0.87    0.07   -0.44   -0.14    0.00    0.00      -0.71   -1.45   -0.45
#  33    2.08   -1.16    0.29   -0.58   -0.08    0.00    0.00       0.54   -2.05   -0.30
#  34   -0.02   -3.86    1.72   -0.48   -0.38    0.00    0.00      -3.02   -1.37   -1.09
#  35    1.53   -1.43    0.45   -0.30   -0.12    0.00    0.00       0.13   -1.07   -0.44
#  36    0.29   -1.26    0.88   -0.59    0.06    0.00    0.00      -0.63   -2.44    0.25
#  37   -0.17   -0.17    0.02    0.30   -0.05    0.00    0.00      -0.08    1.57   -0.28
#  38   -2.13   -0.30    0.08    0.82   -0.07    0.00    0.00      -1.60    3.12   -0.28
#  39   -1.00   -0.42    0.18    0.59   -0.07    0.00    0.00      -0.72    2.22   -0.28
#  40   -2.38   -0.15    0.01    0.50   -0.04    0.00    0.00      -2.07    3.27   -0.28
#  41   -3.51   -0.01    0.00    0.80    0.03    0.00    0.00      -2.69   11.78    0.43
#  42   -1.39   -0.27    0.06    0.89   -0.05    0.00    0.00      -0.76    3.87   -0.22
#  43   -4.22   -0.44    0.17    1.26   -0.09    0.00    0.00      -3.31    4.07   -0.28
#  44   -2.49   -0.08    0.00    0.63   -0.02    0.00    0.00      -1.96    8.17   -0.28
#  45   -4.36   -0.42    0.28    1.46   -0.06    0.00    0.00      -3.11    5.58   -0.22
#  46   -3.22   -0.14    0.00    0.51   -0.03    0.00    0.00      -2.88    4.44   -0.28
#  47   -0.73   -0.18    0.03    0.62   -0.04    0.00    0.00      -0.30    4.48   -0.27
#  48   -1.31   -0.18    0.02    0.93   -0.04    0.00    0.00      -0.58    5.52   -0.23
#  49   -9.36   -0.02    0.00    2.81    0.14    0.00    0.00      -6.43   11.66    0.57
#  50   -2.29   -0.86    1.65    0.36   -0.13    0.00    0.00      -1.27    0.79   -0.28
#  51   -2.07   -0.67    0.57   -0.29   -0.14    0.00    0.00      -2.60   -0.57   -0.27
#  52   -0.46   -0.62    0.18    0.47   -0.16    0.00    0.00      -0.58    0.84   -0.28
#  53   -1.34   -0.37    0.05    1.32   -0.13    0.00    0.00      -0.48    2.76   -0.28
#  54   -0.33   -0.34    0.06    1.48   -0.08    0.00    0.00       0.79    5.29   -0.28
#  55   -2.07   -0.02    0.00    2.80    0.10    0.00    0.00       0.81   13.39    0.46
#  56   -2.13   -0.06    0.00    0.41   -0.01    0.00    0.00      -1.80    6.79   -0.20
#  57   -2.68   -0.13    0.01    1.24   -0.03    0.00    0.00      -1.59    8.61   -0.22
#  58   -0.66   -0.16    0.02    0.99   -0.04    0.00    0.00       0.14    6.57   -0.28
#  59   -3.87   -0.17    0.01    0.21   -0.06    0.00    0.00      -3.89    0.95   -0.28
#  60   -4.41   -0.33    0.09    1.32   -0.07    0.00    0.00      -3.40    5.18   -0.28

@<TRIPOS>MOLECULE
          T532022        88
   60    63     0     0     0



@<TRIPOS>ATOM
      1 Br1         1.0566    -6.0050    87.2083 Br         1           0.0661
      2 C1          0.3737    -5.7773    88.9569 C.2        1          -0.0184
      3 C2         -0.9226    -5.8523    89.3120 C.2        1          -0.1562
      4 C3         -0.9796    -5.6198    90.7055 C.2        1          -0.1626
      5 C4          0.2840    -5.4167    91.1189 C.2        1          -0.0249
      6 C5          0.7126    -5.1298    92.5349 C.3        1           0.1472
      7 N1          1.8860    -5.9488    92.8668 N.3        1          -0.6892
      8 C6          3.1142    -5.3542    92.3224 C.3        1           0.0293
      9 C7          4.3117    -6.2335    92.6877 C.3        1           0.0364
     10 C8          4.7335    -5.9472    94.1302 C.3        1          -0.1595
     11 C9          5.5604    -7.1194    94.6621 C.3        1           0.0916
     12 N2          5.9642    -6.8452    96.0435 N.pl3      1          -0.7313
     13 C10         6.7195    -7.7619    96.7330 C.2        1           0.4687
     14 C11         7.4259    -7.3473    97.8375 C.2        1          -0.3903
     15 C12         8.2044    -8.2673    98.5579 C.2        1           0.4266
     16 O1          8.8387    -7.9192    99.5418 O.2        1          -0.4996
     17 C13         8.2332    -9.6667    98.0921 C.ar       1          -0.1877
     18 C14         8.9841   -10.6346    98.7588 C.ar       1          -0.0303
     19 C15         8.9873   -11.9317    98.2959 C.ar       1          -0.1488
     20 C16         8.2490   -12.2777    97.1731 C.ar       1          -0.0582
     21 C17         7.5030   -11.3319    96.5042 C.ar       1          -0.1723
     22 C18         7.4860   -10.0160    96.9559 C.ar       1           0.1890
     23 N3          6.7411    -9.0535    96.3052 N.pl3      1          -0.6286
     24 N4          5.4305    -5.9378    91.7827 N.4        1          -0.5140
     25 H1          5.4763    -4.9434    91.6183 H          1           0.4281
     26 H2          6.2937    -6.2494    92.2019 H          1           0.4326
     27 C19         5.2258    -6.6362    90.5067 C.3        1           0.0327
     28 C20         6.3735    -6.3329    89.5782 C.ar       1          -0.1536
     29 C21         6.1262    -6.0043    88.2585 C.ar       1          -0.0539
     30 C22         7.1793    -5.7257    87.4060 C.ar       1          -0.0861
     31 Br2         6.8409    -5.2757    85.6007 Br         1           0.0001
     32 C23         8.4799    -5.7762    87.8742 C.ar       1          -0.0288
     33 C24         8.7266    -6.1049    89.1946 C.ar       1          -0.0847
     34 Br3        10.5043    -6.1733    89.8356 Br         1           0.0011
     35 C25         7.6725    -6.3778    90.0479 C.ar       1          -0.0537
     36 O2          1.1003    -5.5189    90.0565 O.3        1          -0.1642
     37 H3         -1.7588    -6.0515    88.6580 H          1           0.1649
     38 H4         -1.8676    -5.6070    91.3201 H          1           0.1614
     39 H5          0.9674    -4.0743    92.6307 H          1           0.0647
     40 H6         -0.1029    -5.3701    93.2171 H          1           0.1214
     41 H7          1.7687    -6.8970    92.5423 H          1           0.3303
     42 H8          3.0334    -5.2828    91.2377 H          1           0.0675
     43 H9          3.2529    -4.3582    92.7429 H          1           0.1318
     44 H10         4.0346    -7.2833    92.5918 H          1           0.1614
     45 H11         5.3325    -5.0369    94.1598 H          1           0.1039
     46 H12         3.8458    -5.8181    94.7496 H          1           0.1320
     47 H13         4.9614    -8.0296    94.6326 H          1           0.0833
     48 H14         6.4482    -7.2484    94.0429 H          1           0.0573
     49 H15         5.6981    -6.0161    96.4711 H          1           0.4281
     50 H16         7.3822    -6.3145    98.1504 H          1           0.1463
     51 H17         9.5600   -10.3684    99.6328 H          1           0.1426
     52 H18         9.5678   -12.6837    98.8096 H          1           0.1352
     53 H19         8.2596   -13.2982    96.8197 H          1           0.1352
     54 H20         6.9320   -11.6116    95.6312 H          1           0.1288
     55 H21         6.2241    -9.3025    95.5232 H          1           0.4061
     56 H22         5.1763    -7.7104    90.6842 H          1           0.1423
     57 H23         4.2932    -6.2995    90.0536 H          1           0.1502
     58 H24         5.1108    -5.9654    87.8928 H          1           0.1478
     59 H25         9.3021    -5.5590    87.2085 H          1           0.1575
     60 H26         7.8650    -6.6302    91.0802 H          1           0.1471
@<TRIPOS>BOND
     1    1    2 1
     2    2   36 1
     3    2    3 2
     4    3    4 1
     5    3   37 1
     6    4    5 2
     7    4   38 1
     8    5    6 1
     9    5   36 1
    10    6    7 1
    11    6   39 1
    12    6   40 1
    13    7    8 1
    14    7   41 1
    15    8    9 1
    16    8   42 1
    17    8   43 1
    18    9   10 1
    19    9   24 1
    20    9   44 1
    21   10   11 1
    22   10   45 1
    23   10   46 1
    24   11   12 1
    25   11   47 1
    26   11   48 1
    27   12   13 1
    28   12   49 1
    29   13   23 1
    30   13   14 2
    31   14   15 1
    32   14   50 1
    33   15   16 2
    34   15   17 1
    35   17   22 ar
    36   17   18 ar
    37   18   19 ar
    38   18   51 1
    39   19   20 ar
    40   19   52 1
    41   20   21 ar
    42   20   53 1
    43   21   22 ar
    44   21   54 1
    45   22   23 1
    46   23   55 1
    47   24   25 1
    48   24   26 1
    49   24   27 1
    50   27   28 1
    51   27   56 1
    52   27   57 1
    53   28   35 ar
    54   28   29 ar
    55   29   30 ar
    56   29   58 1
    57   30   31 1
    58   30   32 ar
    59   32   33 ar
    60   32   59 1
    61   33   34 1
    62   33   35 ar
    63   35   60 1
##########                 Name:              T524544
##########          Protonation:                   94
##########               SMILES:   c1cc(ccc1Cc2ccc(cc2)NC(=[NH2+])N)NC(=[NH2+])N
##########            Long Name:   [[amino(azaniumylidene)methyl]amino]phenyl]methyl]anilino]methylene]ammonium
##########          FlexRecCode: 1
##########               Number:                  317
##########   Ligand Source File: /raidb/db2/rgc/tcams/tcams-0000002.db2.gz
##########           GlobalRank: 477
##########                 Rank:                    1
##########               Setnum:                   17
##########             Matchnum:                 1144
##########                Cloud:                    1
##########        Electrostatic:           -63.904617
##########        Van der Waals:           -11.774648
##########  Ligand Polar Desolv:            13.362988
########## Ligand Apolar Desolv:            -1.270202
##########      Internal Energy:             0.000000
##########      Receptor Energy: 0.0
########## Receptor Desolvation:             0.000000
########## Receptor Hydrophobic:             0.000000
##########         Total Energy: -63.59
##########        Ligand Charge:             2.000000
##########            Arbitrary:    +999.9990
##########     heavy atom count:   21
##########           pose count:    1
##########        Ligand Energy:             0.000000
# num electro vdwattr vdwrepu polsolv apolsol rdesolv rhydroe totalscore fullpol fullapo
#   1   18.00   -0.86    0.04   -8.30    0.26    0.00    0.00       9.13  -26.61    0.84
#   2  -17.20   -1.04    0.07    9.68   -1.89    0.00    0.00     -10.38   24.98   -4.87
#   3   26.88   -3.22    4.21  -13.17    0.45    0.00    0.00      15.14  -26.91    0.92
#   4  -16.71   -0.06    0.00    6.13    0.22    0.00    0.00     -10.41   16.44    0.59
#   5  -18.15   -0.10    0.02    7.69    0.28    0.00    0.00     -10.26   16.30    0.59
#   6    9.59   -1.09    0.09   -7.97    0.41    0.00    0.00       1.03  -20.52    1.05
#   7   -0.68   -1.26    0.58    0.91   -0.16    0.00    0.00      -0.62    3.63   -0.64
#   8    0.94   -1.53    0.96   -1.20   -0.10    0.00    0.00      -0.93   -4.42   -0.36
#   9    0.45   -1.27    0.53   -0.67   -0.11    0.00    0.00      -1.08   -2.72   -0.45
#  10    0.32   -1.01    0.32   -0.44   -0.07    0.00    0.00      -0.88   -2.25   -0.36
#  11    0.32   -0.36    0.05   -0.20   -0.04    0.00    0.00      -0.23   -1.31   -0.24
#  12    0.86   -0.36    0.01   -0.35   -0.06    0.00    0.00       0.11   -2.28   -0.36
#  13    1.08   -0.29    0.01   -0.32   -0.05    0.00    0.00       0.43   -2.86   -0.45
#  14    2.00   -0.50    0.03   -0.66   -0.08    0.00    0.00       0.80   -3.77   -0.46
#  15   -2.33   -0.88    0.13    0.90   -0.16    0.00    0.00      -2.34    3.66   -0.64
#  16   16.59   -1.37    0.40   -6.39    0.33    0.00    0.00       9.56  -20.55    1.05
#  17  -25.14   -2.23    0.97    9.67   -1.87    0.00    0.00     -18.60   25.14   -4.87
#  18   36.14   -5.99    8.66  -11.08    0.32    0.00    0.00      28.06  -26.84    0.78
#  19   26.73   -1.95    0.33  -12.02    0.41    0.00    0.00      13.49  -26.99    0.92
#  20  -14.85   -0.03    0.00    5.62    0.20    0.00    0.00      -9.05   16.32    0.59
#  21  -16.48   -0.04    0.00    6.86    0.25    0.00    0.00      -9.41   16.49    0.59
#  22    3.12   -1.36    0.47   -1.14   -0.09    0.00    0.00       0.99   -4.36   -0.36
#  23    1.29   -1.01    0.29   -0.59   -0.10    0.00    0.00      -0.11   -2.75   -0.45
#  24    0.35   -0.79    0.18   -0.50   -0.08    0.00    0.00      -0.84   -2.84   -0.45
#  25    0.67   -0.86    0.20   -0.73   -0.09    0.00    0.00      -0.81   -3.72   -0.46
#  26  -10.11   -0.02    0.00    3.57    0.13    0.00    0.00      -6.42   15.99    0.59
#  27  -10.24   -0.01    0.00    1.87    0.05    0.00    0.00      -8.34   14.12    0.36
#  28   -6.18   -0.02    0.00    4.80    0.18    0.00    0.00      -1.22   15.39    0.59
#  29   -1.22   -0.23    0.03    1.10   -0.05    0.00    0.00      -0.37    5.22   -0.23
#  30   -1.13   -0.17    0.02    0.61   -0.04    0.00    0.00      -0.73    3.96   -0.28
#  31   -0.47   -0.12    0.01    0.23   -0.03    0.00    0.00      -0.37    2.13   -0.28
#  32   -0.19   -0.10    0.02    0.19   -0.02    0.00    0.00      -0.10    2.13   -0.28
#  33   -1.26   -0.03    0.00    0.12   -0.01    0.00    0.00      -1.18    3.44   -0.28
#  34   -2.20   -0.09    0.00    0.38   -0.03    0.00    0.00      -1.94    4.08   -0.28
#  35   -9.87   -0.02    0.00    2.89    0.11    0.00    0.00      -6.88   15.41    0.59
#  36  -21.14   -0.10    0.01    5.34    0.15    0.00    0.00     -15.75   14.29    0.39
#  37  -27.28   -0.39    0.44    7.61    0.28    0.00    0.00     -19.34   16.19    0.59
#  38   -2.58   -0.64    0.72    1.53   -0.07    0.00    0.00      -1.05    5.27   -0.23
#  39   -1.97   -0.47    0.45    0.76   -0.05    0.00    0.00      -1.28    3.93   -0.28
#  40   -0.56   -0.08    0.00    0.27   -0.02    0.00    0.00      -0.38    3.46   -0.28
#  41   -1.29   -0.10    0.00    0.36   -0.03    0.00    0.00      -1.04    4.07   -0.28

@<TRIPOS>MOLECULE
          T524544        94
   41    42     0     0     0



@<TRIPOS>ATOM
      1 N1          1.8988    -5.3132    94.2994 N.pl3      1          -0.7919
      2 C1          1.6843    -6.0439    95.3923 C.cat      1           0.7455
      3 N2          0.5801    -5.8554    96.1131 N.pl3      1          -0.7847
      4 H1         -0.0677    -5.1862    95.8422 H          1           0.4455
      5 H2          0.4238    -6.3874    96.9090 H          1           0.4434
      6 N3          2.5992    -6.9880    95.7746 N.pl3      1          -0.6376
      7 C2          3.3772    -7.6398    94.8111 C.ar       1           0.1023
      8 C3          4.6504    -8.0913    95.1338 C.ar       1          -0.1561
      9 C4          5.4158    -8.7338    94.1805 C.ar       1          -0.0785
     10 C5          4.9157    -8.9276    92.9059 C.ar       1          -0.0661
     11 C6          5.7536    -9.6290    91.8681 C.3        1          -0.0556
     12 C7          6.5780    -8.6143    91.1185 C.ar       1          -0.0667
     13 C8          6.0696    -8.0183    89.9790 C.ar       1          -0.0794
     14 C9          6.8225    -7.0877    89.2901 C.ar       1          -0.1085
     15 C10         8.0914    -6.7508    89.7428 C.ar       1           0.1020
     16 N4          8.8565    -5.8079    89.0473 N.pl3      1          -0.6358
     17 C11         8.2384    -4.8002    88.3553 C.cat      1           0.7458
     18 N5          7.0637    -4.3299    88.7713 N.pl3      1          -0.7934
     19 N6          8.8120    -4.2908    87.2665 N.pl3      1          -0.7841
     20 H3          9.6675    -4.6333    86.9636 H          1           0.4432
     21 H4          8.3744    -3.5771    86.7765 H          1           0.4456
     22 C12         8.5991    -7.3511    90.8875 C.ar       1          -0.1538
     23 C13         7.8391    -8.2771    91.5749 C.ar       1          -0.0793
     24 C14         3.6483    -8.4795    92.5817 C.ar       1          -0.0790
     25 C15         2.8760    -7.8406    93.5319 C.ar       1          -0.1071
     26 H5          1.2519    -4.6426    94.0295 H          1           0.4418
     27 H6          2.7037    -5.4491    93.7754 H          1           0.4413
     28 H7          2.7074    -7.2068    96.7139 H          1           0.4443
     29 H8          5.0415    -7.9398    96.1291 H          1           0.1371
     30 H9          6.4059    -9.0848    94.4306 H          1           0.1426
     31 H10         6.4147   -10.3441    92.3576 H          1           0.0995
     32 H11         5.1023   -10.1550    91.1701 H          1           0.0995
     33 H12         5.0829    -8.2810    89.6273 H          1           0.1422
     34 H13         6.4250    -6.6228    88.4000 H          1           0.1423
     35 H14         9.8247    -5.8679    89.0554 H          1           0.4442
     36 H15         6.6459    -4.7009    89.5642 H          1           0.4423
     37 H16         6.6260    -3.6163    88.2813 H          1           0.4422
     38 H17         9.5856    -7.0914    91.2418 H          1           0.1380
     39 H18         8.2317    -8.7413    92.4674 H          1           0.1421
     40 H19         3.2605    -8.6328    91.5854 H          1           0.1425
     41 H20         1.8846    -7.4945    93.2791 H          1           0.1426
@<TRIPOS>BOND
     1    1    2 1
     2    1   26 1
     3    1   27 1
     4    2    3 2
     5    2    6 1
     6    3    4 1
     7    3    5 1
     8    6    7 1
     9    6   28 1
    10    7   25 ar
    11    7    8 ar
    12    8    9 ar
    13    8   29 1
    14    9   10 ar
    15    9   30 1
    16   10   11 1
    17   10   24 ar
    18   11   12 1
    19   11   31 1
    20   11   32 1
    21   12   23 ar
    22   12   13 ar
    23   13   14 ar
    24   13   33 1
    25   14   15 ar
    26   14   34 1
    27   15   16 1
    28   15   22 ar
    29   16   17 1
    30   16   35 1
    31   17   18 1
    32   17   19 2
    33   18   36 1
    34   18   37 1
    35   19   20 1
    36   19   21 1
    37   22   23 ar
    38   22   38 1
    39   23   39 1
    40   24   25 ar
    41   24   40 1
    42   25   41 1
##########                 Name:              T532360
##########          Protonation:                   15
##########               SMILES:   CC1(NC(=[NH2+])NC(=[NH2+])N1OCCN(C)c2ccccc2)C
##########            Long Name:   ,6-dimethyl-1-[2-(N-methylanilino)ethoxy]-1,3,5-triazinan-2-ylidene]ammonium
##########          FlexRecCode: 1
##########               Number:                  154
##########   Ligand Source File: /raidb/db2/rgc/tcams/tcams-0000947.db2.gz
##########           GlobalRank: 477
##########                 Rank:                    1
##########               Setnum:                   76
##########             Matchnum:                  858
##########                Cloud:                    1
##########        Electrostatic:           -53.515503
##########        Van der Waals:           -21.192904
##########  Ligand Polar Desolv:            13.644346
########## Ligand Apolar Desolv:            -2.521937
##########      Internal Energy:             0.000000
##########      Receptor Energy: 0.0
########## Receptor Desolvation:             0.000000
########## Receptor Hydrophobic:             0.000000
##########         Total Energy: -63.59
##########        Ligand Charge:             2.000000
##########            Arbitrary:    +999.9990
##########     heavy atom count:   21
##########           pose count:    1
##########        Ligand Energy:             0.000000
# num electro vdwattr vdwrepu polsolv apolsol rdesolv rhydroe totalscore fullpol fullapo
#   1   -0.20   -0.83    0.41    0.41   -0.11    0.00    0.00      -0.33    1.97   -0.54
#   2    3.65   -1.02    0.15   -3.89    0.42    0.00    0.00      -0.70  -15.47    1.65
#   3   -1.82   -0.63    0.10    0.78   -0.11    0.00    0.00      -1.69    3.02   -0.42
#   4    0.31   -0.52    0.05   -0.08   -0.03    0.00    0.00      -0.28   -0.34   -0.13
#   5    1.64   -0.75    0.08   -1.07    0.09    0.00    0.00       0.00   -3.95    0.34
#   6   12.86   -0.80    0.05   -5.80    0.24    0.00    0.00       6.54  -20.86    0.87
#   7  -19.26   -0.86    0.07    9.24   -1.13    0.00    0.00     -11.94   35.57   -4.36
#   8   23.17   -2.00    0.75   -9.69    0.28    0.00    0.00      12.52  -30.64    0.89
#   9  -23.78   -0.09    0.01    6.96    0.14    0.00    0.00     -16.75   21.74    0.45
#  10  -11.93   -0.03    0.00    6.63    0.16    0.00    0.00      -5.16   24.22    0.60
#  11   11.33   -0.58    0.02   -6.78    0.25    0.00    0.00       4.24  -30.91    1.15
#  12  -16.29   -0.77    0.03   10.84   -1.33    0.00    0.00      -7.51   36.86   -4.52
#  13   16.65   -1.11    0.10  -10.90    0.31    0.00    0.00       5.05  -31.00    0.89
#  14   -9.90   -0.01    0.00    4.42    0.11    0.00    0.00      -5.38   24.29    0.60
#  15  -15.18   -0.03    0.00    7.27    0.19    0.00    0.00      -7.76   23.26    0.60
#  16   15.71   -0.94    0.04  -11.79    0.57    0.00    0.00       3.59  -31.49    1.53
#  17  -10.03   -0.73    0.05    6.53   -0.14    0.00    0.00      -4.33   17.54   -0.38
#  18    3.93   -1.07    0.18   -3.18   -0.07    0.00    0.00      -0.21   -7.68   -0.18
#  19    5.29   -2.26    1.23   -2.93   -0.08    0.00    0.00       1.25   -5.88   -0.16
#  20   -1.04   -1.21    0.17    1.52   -0.21    0.00    0.00      -0.77    4.88   -0.68
#  21    1.40   -1.24    0.13   -1.26   -0.13    0.00    0.00      -1.11   -3.68   -0.38
#  22    0.61   -1.68    0.42   -0.69   -0.20    0.00    0.00      -1.53   -1.65   -0.47
#  23    1.15   -1.62    0.25   -1.96   -0.25    0.00    0.00      -2.43   -3.70   -0.47
#  24    0.57   -1.54    0.20   -0.88   -0.23    0.00    0.00      -1.88   -1.81   -0.47
#  25    1.18   -1.33    0.18   -1.46   -0.16    0.00    0.00      -1.58   -4.03   -0.43
#  26   -0.09   -0.36    0.23   -0.01   -0.06    0.00    0.00      -0.30   -0.06   -0.28
#  27    0.10   -0.50    0.66    0.21   -0.04    0.00    0.00       0.42    1.15   -0.22
#  28   -0.36   -0.08    0.00    0.26   -0.02    0.00    0.00      -0.20    3.39   -0.28
#  29   -1.69   -0.45    0.26    0.56   -0.05    0.00    0.00      -1.36    2.62   -0.22
#  30   -2.09   -0.14    0.01    0.50   -0.04    0.00    0.00      -1.76    3.63   -0.28
#  31   -0.47   -0.18    0.04    0.90   -0.03    0.00    0.00       0.26    6.66   -0.22
#  32   -0.78   -0.20    0.04    0.57   -0.04    0.00    0.00      -0.42    3.56   -0.27
#  33   -5.47   -0.01    0.00    2.05    0.05    0.00    0.00      -3.39   25.85    0.59
#  34  -10.65   -0.02    0.00    6.05    0.17    0.00    0.00      -4.44   20.45    0.58
#  35   -2.52   -0.63    0.33    1.33   -0.11    0.00    0.00      -1.60    3.22   -0.27
#  36   -1.62   -0.23    0.02    1.04   -0.07    0.00    0.00      -0.86    3.95   -0.28
#  37   -1.57   -0.40    0.13    1.41   -0.07    0.00    0.00      -0.49    5.18   -0.26
#  38   -2.81   -1.69    3.03    0.64   -0.13    0.00    0.00      -0.96    1.37   -0.28
#  39   -3.97   -0.68    0.22    1.75   -0.14    0.00    0.00      -2.83    3.51   -0.28
#  40   -3.41   -0.64    0.29    0.79   -0.11    0.00    0.00      -3.08    1.95   -0.26
#  41   -1.19   -0.20    0.01    0.92   -0.04    0.00    0.00      -0.49    4.95   -0.19
#  42   -1.30   -0.45    0.24    0.90   -0.08    0.00    0.00      -0.69    3.05   -0.28
#  43   -0.86   -0.38    0.06    0.59   -0.13    0.00    0.00      -0.73    1.26   -0.28
#  44   -1.72   -0.45    0.14    0.50   -0.13    0.00    0.00      -1.65    1.12   -0.28
#  45   -1.04   -0.24    0.03    0.45   -0.05    0.00    0.00      -0.86    1.81   -0.21

@<TRIPOS>MOLECULE
          T532360        15
   45    46     0     0     0



@<TRIPOS>ATOM
      1 C1          6.2162   -10.7413    92.7501 C.3        1           0.0841
      2 N1          6.7194    -9.9166    93.8515 N.pl3      1          -0.6318
      3 C2          6.7303    -8.4569    93.7278 C.3        1           0.1319
      4 C3          5.4072    -7.8911    94.2476 C.3        1          -0.0238
      5 O1          5.4178    -6.4673    94.1270 O.3        1          -0.0604
      6 N2          4.1305    -5.8779    94.1472 N.pl3      1          -0.4868
      7 C4          3.4117    -5.6776    92.9775 C.cat      1           0.7619
      8 N3          3.9635    -5.1832    91.9063 N.pl3      1          -0.6755
      9 H1          4.9033    -4.9433    91.9113 H          1           0.4591
     10 H2          3.4346    -5.0548    91.1033 H          1           0.4589
     11 N4          2.0650    -6.0364    93.0144 N.pl3      1          -0.6716
     12 C5          1.3968    -5.7585    94.2061 C.cat      1           0.7710
     13 N5          0.1650    -5.3356    94.2224 N.pl3      1          -0.6685
     14 H3         -0.3142    -5.2055    93.3891 H          1           0.4600
     15 H4         -0.2732    -5.1508    95.0678 H          1           0.4682
     16 N6          2.1191    -5.9586    95.3736 N.pl3      1          -0.7072
     17 C6          3.5004    -5.4596    95.4113 C.3        1           0.4043
     18 C7          4.2470    -6.0711    96.5984 C.3        1          -0.1899
     19 C8          3.5009    -3.9333    95.5191 C.3        1          -0.1704
     20 C9          7.1886   -10.5221    95.0195 C.ar       1           0.2002
     21 C10         7.2677    -9.7920    96.1986 C.ar       1          -0.1893
     22 C11         7.7317   -10.3939    97.3517 C.ar       1          -0.0775
     23 C12         8.1177   -11.7216    97.3333 C.ar       1          -0.1626
     24 C13         8.0402   -12.4513    96.1612 C.ar       1          -0.0689
     25 C14         7.5717   -11.8572    95.0058 C.ar       1          -0.1845
     26 H5          6.2864   -11.7942    93.0231 H          1           0.0606
     27 H6          5.1752   -10.4861    92.5513 H          1           0.0763
     28 H7          6.8125   -10.5571    91.8565 H          1           0.0675
     29 H8          7.5547    -8.0489    94.3126 H          1           0.0975
     30 H9          6.8566    -8.1819    92.6807 H          1           0.1217
     31 H10         4.5828    -8.2991    93.6628 H          1           0.0741
     32 H11         5.2808    -8.1662    95.2948 H          1           0.0935
     33 H12         1.6210    -6.4525    92.2590 H          1           0.4799
     34 H13         1.7280    -6.4129    96.1362 H          1           0.4655
     35 H14         3.7728    -5.7552    97.5276 H          1           0.1111
     36 H15         4.2163    -7.1583    96.5261 H          1           0.1229
     37 H16         5.2840    -5.7355    96.5875 H          1           0.0687
     38 H17         3.0329    -3.6352    96.4572 H          1           0.1008
     39 H18         4.5274    -3.5675    95.4927 H          1           0.1122
     40 H19         2.9428    -3.5100    94.6838 H          1           0.1089
     41 H20         6.9671    -8.7548    96.2134 H          1           0.1120
     42 H21         7.7934    -9.8268    98.2688 H          1           0.1195
     43 H22         8.4808   -12.1896    98.2363 H          1           0.1233
     44 H23         8.3425   -13.4881    96.1503 H          1           0.1274
     45 H24         7.5072   -12.4289    94.0918 H          1           0.1259
@<TRIPOS>BOND
     1    1    2 1
     2    1   26 1
     3    1   27 1
     4    1   28 1
     5    2    3 1
     6    2   20 1
     7    3    4 1
     8    3   29 1
     9    3   30 1
    10    4    5 1
    11    4   31 1
    12    4   32 1
    13    5    6 1
    14    6   17 1
    15    6    7 1
    16    7    8 2
    17    7   11 1
    18    8    9 1
    19    8   10 1
    20   11   12 1
    21   11   33 1
    22   12   13 2
    23   12   16 1
    24   13   14 1
    25   13   15 1
    26   16   17 1
    27   16   34 1
    28   17   18 1
    29   17   19 1
    30   18   35 1
    31   18   36 1
    32   18   37 1
    33   19   38 1
    34   19   39 1
    35   19   40 1
    36   20   25 ar
    37   20   21 ar
    38   21   22 ar
    39   21   41 1
    40   22   23 ar
    41   22   42 1
    42   23   24 ar
    43   23   43 1
    44   24   25 ar
    45   24   44 1
    46   25   45 1
##########                 Name:              T528786
##########          Protonation:                   28
##########               SMILES:   c1cc(cc(c1)C[NH2+][C@H]2CC[NH+](CC2)Cc3ccc(cc3)O)C(F)(F)F
##########            Long Name:   nyl)methyl]piperidin-1-ium-4-yl]-[[3-(trifluoromethyl)phenyl]methyl]ammonium
##########          FlexRecCode: 1
##########               Number:                  236
##########   Ligand Source File: /raidb/db2/rgc/tcams/tcams-0000486.db2.gz
##########           GlobalRank: 482
##########                 Rank:                    1
##########               Setnum:                   24
##########             Matchnum:                 3548
##########                Cloud:                    1
##########        Electrostatic:           -59.705318
##########        Van der Waals:           -19.939838
##########  Ligand Polar Desolv:            19.316021
########## Ligand Apolar Desolv:            -3.254260
##########      Internal Energy:             0.000000
##########      Receptor Energy: 0.0
########## Receptor Desolvation:             0.000000
########## Receptor Hydrophobic:             0.000000
##########         Total Energy: -63.58
##########        Ligand Charge:             2.000000
##########            Arbitrary:    +999.9990
##########     heavy atom count:   26
##########           pose count:    1
##########        Ligand Energy:             0.000000
# num electro vdwattr vdwrepu polsolv apolsol rdesolv rhydroe totalscore fullpol fullapo
#   1    5.70   -3.00    3.53   -2.88    0.39    0.00    0.00       3.73   -8.90    1.19
#   2   -1.52   -1.00    0.12    0.11   -0.09    0.00    0.00      -2.39    0.37   -0.31
#   3    3.66   -1.45    0.32   -1.71   -0.16    0.00    0.00       0.67   -4.98   -0.46
#   4    2.74   -2.82    1.80   -0.63   -0.12    0.00    0.00       0.97   -1.84   -0.36
#   5    3.57   -1.53    0.47   -1.11   -0.10    0.00    0.00       1.31   -3.83   -0.33
#   6   -1.32   -1.15    0.39    0.96   -0.11    0.00    0.00      -1.23    3.16   -0.36
#   7   14.71   -2.09    2.28   -5.18    0.08    0.00    0.00       9.79  -18.48    0.27
#   8  -24.49   -0.21    0.09    7.50    0.17    0.00    0.00     -16.93   23.47    0.54
#   9    0.20   -0.41    0.04   -0.20   -0.07    0.00    0.00      -0.42   -1.05   -0.35
#  10    3.69   -0.61    0.10   -2.06   -0.06    0.00    0.00       1.06   -8.59   -0.24
#  11   -0.26   -0.52    0.04    0.61   -0.06    0.00    0.00      -0.18    2.43   -0.23
#  12    5.61   -0.90    0.40   -2.67   -0.06    0.00    0.00       2.39   -9.82   -0.21
#  13    0.09   -0.98    0.45   -0.06   -0.10    0.00    0.00      -0.60   -0.24   -0.38
#  14    8.71   -1.13    0.32   -8.15    0.19    0.00    0.00      -0.06  -26.87    0.63
#  15   -6.04   -0.03    0.00    4.83    0.11    0.00    0.00      -1.13   24.51    0.56
#  16  -10.01   -0.04    0.00    7.15    0.16    0.00    0.00      -2.74   25.56    0.56
#  17   -0.49   -0.69    0.06    1.15   -0.13    0.00    0.00      -0.11    3.48   -0.40
#  18    2.11   -1.32    0.12   -1.47   -0.15    0.00    0.00      -0.70   -3.68   -0.37
#  19    0.40   -1.50    0.25   -0.66   -0.16    0.00    0.00      -1.68   -1.69   -0.42
#  20    1.98   -1.94    0.72   -2.60   -0.19    0.00    0.00      -2.03   -5.34   -0.38
#  21    0.52   -2.59    0.79   -1.70   -0.25    0.00    0.00      -3.24   -2.98   -0.44
#  22    2.15   -2.57    0.47   -2.64   -0.28    0.00    0.00      -2.87   -4.44   -0.47
#  23    0.99   -1.80    0.27   -0.51   -0.23    0.00    0.00      -1.29   -1.00   -0.45
#  24   -4.28   -1.34    0.31    4.38   -0.04    0.00    0.00      -0.97    7.78   -0.07
#  25    1.28   -0.83    0.05   -1.79   -0.27    0.00    0.00      -1.56   -3.15   -0.48
#  26    1.50   -1.68    1.01   -1.64   -0.25    0.00    0.00      -1.05   -2.90   -0.45
#  27    1.24   -2.35    2.18   -2.01   -0.28    0.00    0.00      -1.22   -3.26   -0.45
#  28    0.26   -0.73    0.09   -0.44   -0.09    0.00    0.00      -0.93   -2.12   -0.45
#  29    0.54   -0.70    0.05   -1.08   -0.10    0.00    0.00      -1.28   -5.00   -0.46
#  30  -10.94   -0.05    0.00    2.32    0.36    0.00    0.00      -8.31    7.86    1.22
#  31   -4.57   -0.28    0.03    0.56   -0.08    0.00    0.00      -4.34    1.85   -0.28
#  32   -6.67   -1.78    4.66    3.11   -0.11    0.00    0.00      -0.78    7.78   -0.28
#  33   -5.58   -0.85    0.82    3.13   -0.10    0.00    0.00      -2.59    8.16   -0.27
#  34   -2.02   -0.12    0.01    1.22   -0.04    0.00    0.00      -0.95    8.45   -0.28
#  35   -1.90   -0.06    0.00    0.47   -0.01    0.00    0.00      -1.51    8.99   -0.28
#  36   -2.97   -0.08    0.00    0.35   -0.02    0.00    0.00      -2.72    4.31   -0.20
#  37   -1.92   -0.13    0.01    0.72   -0.03    0.00    0.00      -1.34    6.29   -0.28
#  38   -3.27   -0.45    0.24    1.87   -0.08    0.00    0.00      -1.69    6.78   -0.28
#  39   -1.58   -0.13    0.01    1.30   -0.03    0.00    0.00      -0.43   11.14   -0.28
#  40   -3.61   -0.15    0.01    1.08   -0.03    0.00    0.00      -2.70    8.50   -0.22
#  41   -5.47   -0.90    2.50    2.21   -0.08    0.00    0.00      -1.73    8.04   -0.28
#  42   -6.23   -0.45    0.19    2.25   -0.08    0.00    0.00      -4.32    7.91   -0.28
#  43   -2.92   -0.10    0.00    0.86   -0.03    0.00    0.00      -2.18    8.87   -0.28
#  44   -2.00   -0.17    0.01    1.98   -0.04    0.00    0.00      -0.23   11.38   -0.22
#  45   -0.37   -0.37    0.19    2.24   -0.07    0.00    0.00       1.62    9.41   -0.28
#  46   -0.81   -0.24    0.02    1.57   -0.06    0.00    0.00       0.48    6.60   -0.27
#  47   -3.43   -0.82    0.51    0.37   -0.15    0.00    0.00      -3.51    0.69   -0.27
#  48   -3.52   -0.84    0.24    1.91   -0.17    0.00    0.00      -2.38    3.14   -0.28
#  49   -2.34   -0.53    0.44    3.49   -0.10    0.00    0.00       0.96   10.08   -0.28
#  50   -0.37   -0.09    0.00    0.64   -0.03    0.00    0.00       0.16    6.97   -0.28
#  51   -0.46   -0.11    0.01    0.18   -0.03    0.00    0.00      -0.42    1.51   -0.28

@<TRIPOS>MOLECULE
          T528786        28
   51    53     0     0     0



@<TRIPOS>ATOM
      1 O1          7.7212    -5.7974    85.4265 O.3        1          -0.4908
      2 C1          6.9715    -5.7399    86.5586 C.ar       1           0.1595
      3 C2          7.4842    -5.1444    87.7020 C.ar       1          -0.1439
      4 C3          6.7200    -5.0868    88.8513 C.ar       1          -0.0798
      5 C4          5.4454    -5.6226    88.8630 C.ar       1          -0.1871
      6 C5          4.6141    -5.5587    90.1183 C.3        1           0.0477
      7 N1          5.4399    -5.9389    91.2723 N.4        1          -0.3881
      8 H1          6.2187    -5.3024    91.3515 H          1           0.4257
      9 C6          5.9431    -7.3048    91.0832 C.3        1          -0.0093
     10 C7          6.8694    -7.6762    92.2431 C.3        1          -0.1690
     11 C8          6.0890    -7.5956    93.5584 C.3        1           0.0131
     12 C9          5.5062    -6.1876    93.7091 C.3        1          -0.1717
     13 C10         4.6299    -5.8730    92.4947 C.3        1          -0.0028
     14 N2          6.9912    -7.8767    94.6830 N.4        1          -0.5075
     15 H2          7.6179    -8.6268    94.4319 H          1           0.4379
     16 H3          7.5267    -7.0495    94.8996 H          1           0.4306
     17 C11         6.2018    -8.2707    95.8575 C.3        1           0.0454
     18 C12         7.1274    -8.5591    97.0112 C.ar       1          -0.1779
     19 C13         7.6230    -9.8363    97.1975 C.ar       1          -0.0440
     20 C14         8.4718   -10.1007    98.2556 C.ar       1          -0.1706
     21 C15         8.8260    -9.0879    99.1276 C.ar       1          -0.0274
     22 C16         8.3312    -7.8109    98.9409 C.ar       1          -0.1084
     23 C17         7.4855    -7.5454    97.8800 C.ar       1          -0.0614
     24 C18         9.0112   -11.4931    98.4591 C.3        1           0.5050
     25 F1          8.5152   -12.3362    97.4589 F          1          -0.1697
     26 F2         10.4084   -11.4659    98.3955 F          1          -0.1652
     27 F3          8.6106   -11.9699    99.7119 F          1          -0.1724
     28 C19         4.9320    -6.2163    87.7247 C.ar       1          -0.0714
     29 C20         5.6901    -6.2717    86.5713 C.ar       1          -0.1429
     30 H4          8.5988    -5.4012    85.5155 H          1           0.4080
     31 H5          8.4800    -4.7264    87.6935 H          1           0.1455
     32 H6          7.1186    -4.6234    89.7415 H          1           0.1355
     33 H7          4.2419    -4.5437    90.2565 H          1           0.1446
     34 H8          3.7722    -6.2458    90.0320 H          1           0.1413
     35 H9          5.1040    -7.9996    91.0520 H          1           0.1430
     36 H10         6.4956    -7.3612    90.1452 H          1           0.1522
     37 H11         7.2406    -8.6912    92.1018 H          1           0.1375
     38 H12         7.7091    -6.9820    92.2751 H          1           0.1121
     39 H13         5.2798    -8.3259    93.5473 H          1           0.1594
     40 H14         4.9028    -6.1385    94.6156 H          1           0.1375
     41 H15         6.3176    -5.4625    93.7715 H          1           0.1135
     42 H16         4.2121    -4.8717    92.5995 H          1           0.1527
     43 H17         3.8194    -6.5992    92.4326 H          1           0.1436
     44 H18         5.5248    -7.4606    96.1286 H          1           0.1444
     45 H19         5.6235    -9.1645    95.6235 H          1           0.1470
     46 H20         7.3464   -10.6274    96.5162 H          1           0.1462
     47 H21         9.4888    -9.2947    99.9548 H          1           0.1544
     48 H22         8.6076    -7.0198    99.6223 H          1           0.1537
     49 H23         7.1020    -6.5467    97.7319 H          1           0.1420
     50 H24         3.9360    -6.6336    87.7363 H          1           0.1369
     51 H25         5.2873    -6.7322    85.6812 H          1           0.1458
@<TRIPOS>BOND
     1    1    2 1
     2    1   30 1
     3    2   29 ar
     4    2    3 ar
     5    3    4 ar
     6    3   31 1
     7    4    5 ar
     8    4   32 1
     9    5    6 1
    10    5   28 ar
    11    6    7 1
    12    6   33 1
    13    6   34 1
    14    7    8 1
    15    7   13 1
    16    7    9 1
    17    9   10 1
    18    9   35 1
    19    9   36 1
    20   10   11 1
    21   10   37 1
    22   10   38 1
    23   11   12 1
    24   11   14 1
    25   11   39 1
    26   12   13 1
    27   12   40 1
    28   12   41 1
    29   13   42 1
    30   13   43 1
    31   14   15 1
    32   14   16 1
    33   14   17 1
    34   17   18 1
    35   17   44 1
    36   17   45 1
    37   18   23 ar
    38   18   19 ar
    39   19   20 ar
    40   19   46 1
    41   20   21 ar
    42   20   24 1
    43   21   22 ar
    44   21   47 1
    45   22   23 ar
    46   22   48 1
    47   23   49 1
    48   24   25 1
    49   24   26 1
    50   24   27 1
    51   28   29 ar
    52   28   50 1
    53   29   51 1
##########                 Name:              T536827
##########          Protonation:                   97
##########               SMILES:   c1cc(cc(c1)Oc2ccc(cc2)Cl)C[NH2+]C[C@H](c3cc(cc(c3)C(F)(F)F)C(F)(F)F)O
##########            Long Name:   omethyl)phenyl]-2-hydroxy-ethyl]-[[3-(4-chlorophenoxy)phenyl]methyl]ammonium
##########          FlexRecCode: 1
##########               Number:                   91
##########   Ligand Source File: /raidb/db2/rgc/tcams/tcams-0001547.db2.gz
##########           GlobalRank: 482
##########                 Rank:                    1
##########               Setnum:                  346
##########             Matchnum:                  377
##########                Cloud:                    1
##########        Electrostatic:           -42.343346
##########        Van der Waals:           -28.024954
##########  Ligand Polar Desolv:             9.861259
########## Ligand Apolar Desolv:            -3.070395
##########      Internal Energy:             0.000000
##########      Receptor Energy: 0.0
########## Receptor Desolvation:             0.000000
########## Receptor Hydrophobic:             0.000000
##########         Total Energy: -63.58
##########        Ligand Charge:             1.000000
##########            Arbitrary:    +999.9990
##########     heavy atom count:   33
##########           pose count:    1
##########        Ligand Energy:             0.000000
# num electro vdwattr vdwrepu polsolv apolsol rdesolv rhydroe totalscore fullpol fullapo
#   1   20.30   -2.00    1.97   -4.61    0.45    0.00    0.00      16.11  -16.98    1.64
#   2   -3.26   -0.50    0.07    0.95   -0.03    0.00    0.00      -2.77    4.53   -0.14
#   3    1.04   -0.43    0.03   -0.21   -0.08    0.00    0.00       0.36   -0.95   -0.37
#   4   17.63   -1.41    0.42   -6.44    0.25    0.00    0.00      10.45  -19.06    0.73
#   5  -21.04   -0.05    0.00    5.12    0.16    0.00    0.00     -15.81   17.59    0.54
#   6  -15.33   -0.04    0.00    6.30    0.19    0.00    0.00      -8.88   18.59    0.57
#   7   -1.34   -0.84    0.08    0.96   -0.16    0.00    0.00      -1.29    2.59   -0.42
#   8    3.18   -1.03    0.06   -0.68   -0.13    0.00    0.00       1.40   -1.92   -0.37
#   9    3.24   -1.26    0.14   -0.99   -0.17    0.00    0.00       0.95   -2.65   -0.46
#  10   -2.51   -1.56    0.34    0.29   -0.13    0.00    0.00      -3.56    0.73   -0.31
#  11    4.62   -1.60    0.65   -1.48    0.21    0.00    0.00       2.41   -3.25    0.47
#  12   -1.02   -1.41    0.14    0.41   -0.08    0.00    0.00      -1.97    0.91   -0.18
#  13    1.83   -1.93    0.25   -0.62   -0.25    0.00    0.00      -0.71   -1.13   -0.46
#  14    1.47   -2.02    0.48   -0.45   -0.25    0.00    0.00      -0.76   -0.83   -0.46
#  15    0.26   -1.72    0.49   -0.22   -0.13    0.00    0.00      -1.32   -0.49   -0.30
#  16    0.36   -3.49    0.83   -0.30   -0.56    0.00    0.00      -3.16   -0.53   -0.99
#  17    0.65   -1.42    0.18   -0.32   -0.17    0.00    0.00      -1.08   -0.87   -0.46
#  18    1.05   -1.22    0.11   -0.40   -0.16    0.00    0.00      -0.62   -1.12   -0.46
#  19    2.17   -2.13    0.49   -1.40   -0.20    0.00    0.00      -1.07   -3.06   -0.43
#  20    1.07   -2.20    0.71   -1.10   -0.24    0.00    0.00      -1.76   -2.20   -0.47
#  21    2.60   -1.17    0.08   -1.08   -0.19    0.00    0.00       0.24   -2.60   -0.45
#  22    1.55   -0.31    0.01   -0.28   -0.04    0.00    0.00       0.93   -2.25   -0.35
#  23    0.14   -0.20    0.00   -0.02   -0.03    0.00    0.00      -0.12   -0.29   -0.40
#  24    0.08   -0.19    0.01   -0.25   -0.03    0.00    0.00      -0.38   -3.03   -0.38
#  25    0.00   -0.40    0.09   -0.09   -0.05    0.00    0.00      -0.45   -0.84   -0.42
#  26    0.37   -0.55    0.15   -0.40   -0.05    0.00    0.00      -0.48   -3.00   -0.37
#  27    0.15   -0.39    0.03   -0.02   -0.06    0.00    0.00      -0.30   -0.16   -0.44
#  28   -1.53   -0.47    0.13    0.87   -0.01    0.00    0.00      -1.01    5.22   -0.07
#  29    0.37   -0.36    0.06   -0.27   -0.08    0.00    0.00      -0.27   -1.49   -0.44
#  30    0.98   -0.18    0.01   -0.27   -0.07    0.00    0.00       0.47   -1.96   -0.48
#  31    0.13   -1.09    0.72   -0.46   -0.12    0.00    0.00      -0.82   -1.82   -0.48
#  32   -0.38   -0.07    0.00    0.30    0.00    0.00    0.00      -0.15    5.46   -0.07
#  33    0.18   -0.05    0.00   -0.10   -0.02    0.00    0.00       0.00   -1.90   -0.48
#  34    0.13   -0.03    0.00   -0.05   -0.02    0.00    0.00       0.03   -1.55   -0.45
#  35    0.10   -0.09    0.00   -0.18   -0.04    0.00    0.00      -0.20   -2.07   -0.45
#  36  -24.17   -0.27    0.23    4.08    0.32    0.00    0.00     -19.82   13.01    1.01
#  37   -3.33   -0.18    0.02    1.09   -0.05    0.00    0.00      -2.45    6.00   -0.28
#  38   -2.19   -0.08    0.00    0.57   -0.02    0.00    0.00      -1.73    7.57   -0.28
#  39   -2.49   -0.10    0.00    0.67   -0.03    0.00    0.00      -1.94    7.03   -0.28
#  40   -4.54   -0.51    0.14    2.94   -0.11    0.00    0.00      -2.08    7.47   -0.28
#  41   -3.25   -0.17    0.01    1.25   -0.05    0.00    0.00      -2.22    6.79   -0.28
#  42   -5.02   -0.29    0.04    1.27   -0.08    0.00    0.00      -4.08    4.65   -0.28
#  43   -2.75   -0.54    0.10    0.91   -0.15    0.00    0.00      -2.43    1.66   -0.28
#  44   -2.83   -0.50    0.12    0.58   -0.13    0.00    0.00      -2.77    1.23   -0.28
#  45   -0.53   -0.27    0.03    0.36   -0.07    0.00    0.00      -0.49    1.45   -0.28
#  46   -1.15   -0.20    0.02    0.38   -0.05    0.00    0.00      -0.99    2.11   -0.28
#  47   -1.47   -0.76    0.56    0.25   -0.10    0.00    0.00      -1.53    0.54   -0.23
#  48   -1.83   -0.88    0.89    0.86   -0.13    0.00    0.00      -1.09    1.81   -0.28
#  49   -3.40   -0.22    0.02    1.46   -0.07    0.00    0.00      -2.21    5.80   -0.28
#  50   -0.69   -0.04    0.00    0.22   -0.01    0.00    0.00      -0.52    5.59   -0.22
#  51   -0.03   -0.06    0.01    0.06   -0.02    0.00    0.00      -0.05    0.85   -0.23
#  52   -1.90   -0.08    0.00    0.41   -0.02    0.00    0.00      -1.59    5.23   -0.28

@<TRIPOS>MOLECULE
          T536827        97
   52    54     0     0     0



@<TRIPOS>ATOM
      1 O1          6.0132    -6.2874    91.7036 O.3        1          -0.5404
      2 C1          4.6611    -6.6186    91.3804 C.3        1           0.1369
      3 C2          3.7685    -6.3606    92.5960 C.3        1          -0.0472
      4 N1          3.8493    -4.9426    92.9708 N.4        1          -0.5052
      5 H1          4.8040    -4.7088    93.1988 H          1           0.4338
      6 H2          3.5388    -4.3723    92.1984 H          1           0.4303
      7 C3          2.9923    -4.6950    94.1379 C.3        1           0.0477
      8 C4          3.4562    -5.5465    95.2914 C.ar       1          -0.1301
      9 C5          4.8028    -5.6322    95.5882 C.ar       1          -0.1236
     10 C6          5.2293    -6.4164    96.6502 C.ar       1           0.1325
     11 O2          6.5531    -6.5019    96.9446 O.3        1          -0.2492
     12 C7          7.0706    -7.7310    97.2061 C.ar       1           0.0692
     13 C8          7.9189    -7.9116    98.2890 C.ar       1          -0.1085
     14 C9          8.4436    -9.1619    98.5533 C.ar       1          -0.0946
     15 C10         8.1235   -10.2338    97.7388 C.ar       1          -0.0264
     16 Cl1         8.7842   -11.8040    98.0732 Cl         1          -0.0466
     17 C11         7.2774   -10.0558    96.6586 C.ar       1          -0.0954
     18 C12         6.7468    -8.8082    96.3937 C.ar       1          -0.1092
     19 C13         4.3016    -7.1130    97.4118 C.ar       1          -0.1601
     20 C14         2.9565    -7.0240    97.1107 C.ar       1          -0.0724
     21 C15         2.5335    -6.2370    96.0551 C.ar       1          -0.1254
     22 C16         4.5783    -8.0734    90.9960 C.ar       1          -0.1419
     23 C17         3.6211    -8.4962    90.0927 C.ar       1          -0.0276
     24 C18         3.5452    -9.8307    89.7401 C.ar       1          -0.1714
     25 C19         4.4266   -10.7422    90.2905 C.ar       1          -0.0051
     26 C20         5.3844   -10.3193    91.1930 C.ar       1          -0.1725
     27 C21         5.4632    -8.9841    91.5424 C.ar       1          -0.0179
     28 C22         6.3450   -11.3131    91.7934 C.3        1           0.5103
     29 F1          6.0725   -12.5889    91.2882 F          1          -0.1671
     30 F2          7.6560   -10.9516    91.4647 F          1          -0.1697
     31 F3          6.1986   -11.3214    93.1847 F          1          -0.1671
     32 C23         2.5011   -10.2917    88.7561 C.3        1           0.5100
     33 F4          1.7341    -9.1971    88.3430 F          1          -0.1681
     34 F5          3.1284   -10.8670    87.6458 F          1          -0.1658
     35 F6          1.6714   -11.2389    89.3659 F          1          -0.1705
     36 H3          6.1413    -5.3642    91.9609 H          1           0.3910
     37 H4          4.3258    -6.0027    90.5461 H          1           0.1403
     38 H5          2.7372    -6.6131    92.3495 H          1           0.1493
     39 H6          4.1039    -6.9766    93.4304 H          1           0.1410
     40 H7          3.0523    -3.6428    94.4159 H          1           0.1431
     41 H8          1.9610    -4.9474    93.8915 H          1           0.1412
     42 H9          5.5230    -5.0892    94.9939 H          1           0.1421
     43 H10         8.1692    -7.0752    98.9248 H          1           0.1429
     44 H11         9.1042    -9.3028    99.3960 H          1           0.1475
     45 H12         7.0288   -10.8937    96.0240 H          1           0.1472
     46 H13         6.0834    -8.6706    95.5527 H          1           0.1421
     47 H14         4.6310    -7.7245    98.2387 H          1           0.1401
     48 H15         2.2340    -7.5660    97.7029 H          1           0.1412
     49 H16         1.4810    -6.1654    95.8240 H          1           0.1358
     50 H17         2.9325    -7.7840    89.6627 H          1           0.1482
     51 H18         4.3669   -11.7850    90.0156 H          1           0.1627
     52 H19         6.2137    -8.6530    92.2447 H          1           0.1526
@<TRIPOS>BOND
     1    1    2 1
     2    1   36 1
     3    2    3 1
     4    2   22 1
     5    2   37 1
     6    3    4 1
     7    3   38 1
     8    3   39 1
     9    4    5 1
    10    4    6 1
    11    4    7 1
    12    7    8 1
    13    7   40 1
    14    7   41 1
    15    8   21 ar
    16    8    9 ar
    17    9   10 ar
    18    9   42 1
    19   10   11 1
    20   10   19 ar
    21   11   12 1
    22   12   18 ar
    23   12   13 ar
    24   13   14 ar
    25   13   43 1
    26   14   15 ar
    27   14   44 1
    28   15   16 1
    29   15   17 ar
    30   17   18 ar
    31   17   45 1
    32   18   46 1
    33   19   20 ar
    34   19   47 1
    35   20   21 ar
    36   20   48 1
    37   21   49 1
    38   22   27 ar
    39   22   23 ar
    40   23   24 ar
    41   23   50 1
    42   24   25 ar
    43   24   32 1
    44   25   26 ar
    45   25   51 1
    46   26   27 ar
    47   26   28 1
    48   27   52 1
    49   28   29 1
    50   28   30 1
    51   28   31 1
    52   32   33 1
    53   32   34 1
    54   32   35 1
##########                 Name:              T537670
##########          Protonation:                   99
##########               SMILES:   C[C@@H](Cc1ccc(c(c1)F)OC)[NH2+]C[C@H](c2cccc(c2)Cl)O
##########            Long Name:   2-hydroxy-ethyl]-[(1S)-2-(3-fluoro-4-methoxy-phenyl)-1-methyl-ethyl]ammonium
##########          FlexRecCode: 1
##########               Number:                   15
##########   Ligand Source File: /raidb/db2/rgc/tcams/tcams-0001669.db2.gz
##########           GlobalRank: 482
##########                 Rank:                    1
##########               Setnum:                  305
##########             Matchnum:                 1898
##########                Cloud:                    1
##########        Electrostatic:           -53.005550
##########        Van der Waals:           -20.370106
##########  Ligand Polar Desolv:            11.812580
########## Ligand Apolar Desolv:            -2.013130
##########      Internal Energy:             0.000000
##########      Receptor Energy: 0.0
########## Receptor Desolvation:             0.000000
########## Receptor Hydrophobic:             0.000000
##########         Total Energy: -63.58
##########        Ligand Charge:             1.000000
##########            Arbitrary:    +999.9990
##########     heavy atom count:   23
##########           pose count:    1
##########        Ligand Energy:             0.000000
# num electro vdwattr vdwrepu polsolv apolsol rdesolv rhydroe totalscore fullpol fullapo
#   1   -0.34   -1.21    0.15    0.09    0.02    0.00    0.00      -1.29    0.17    0.03
#   2    3.73   -1.06    0.07   -1.06    0.38    0.00    0.00       2.06   -2.58    0.92
#   3   -1.78   -1.18    0.10    0.06   -0.12    0.00    0.00      -2.93    0.14   -0.31
#   4    4.08   -1.61    0.30   -1.19   -0.17    0.00    0.00       1.42   -2.89   -0.42
#   5    2.30   -1.75    0.37   -0.62   -0.20    0.00    0.00       0.10   -1.37   -0.45
#   6    4.06   -1.55    0.26   -0.79   -0.14    0.00    0.00       1.83   -1.89   -0.33
#   7    3.19   -1.48    0.28   -1.31   -0.10    0.00    0.00       0.59   -2.73   -0.21
#   8   -0.92   -1.02    0.16    0.84   -0.09    0.00    0.00      -1.03    2.17   -0.24
#   9    3.96   -0.46    0.01   -1.60   -0.05    0.00    0.00       1.86   -5.95   -0.19
#  10   22.06   -2.55    2.99   -5.77    0.21    0.00    0.00      16.95  -16.84    0.62
#  11  -29.31   -0.25    0.12    5.76    0.17    0.00    0.00     -23.52   14.33    0.42
#  12  -16.41   -0.03    0.00    3.09    0.10    0.00    0.00     -13.25   16.43    0.53
#  13    1.41   -1.12    0.34   -0.23   -0.11    0.00    0.00       0.29   -0.74   -0.36
#  14   -4.23   -1.16    0.49    1.10   -0.04    0.00    0.00      -3.84    3.82   -0.14
#  15   17.22   -1.19    0.45   -3.63    0.40    0.00    0.00      13.27  -14.75    1.64
#  16    1.50   -0.54    0.03   -0.39   -0.07    0.00    0.00       0.54   -1.90   -0.35
#  17    0.78   -0.21    0.00   -0.16   -0.04    0.00    0.00       0.37   -1.77   -0.44
#  18    0.24   -0.12    0.00   -0.10   -0.03    0.00    0.00      -0.01   -1.87   -0.47
#  19    0.15   -0.17    0.00   -0.12   -0.03    0.00    0.00      -0.17   -1.72   -0.46
#  20    0.06   -0.47    0.03   -0.16   -0.05    0.00    0.00      -0.57   -0.93   -0.29
#  21    0.08   -2.34    0.88   -0.26   -0.25    0.00    0.00      -1.89   -1.03   -0.98
#  22    0.28   -0.89    0.14   -0.43   -0.11    0.00    0.00      -1.00   -1.78   -0.44
#  23    2.80   -1.45    0.20   -0.84   -0.15    0.00    0.00       0.56   -2.11   -0.38
#  24   -1.10   -1.48    0.18   -0.07   -0.14    0.00    0.00      -2.62   -0.18   -0.34
#  25    0.87   -2.32    2.06   -0.72   -0.23    0.00    0.00      -0.34   -1.47   -0.47
#  26   -1.76   -0.34    0.05    0.33   -0.10    0.00    0.00      -1.83    0.90   -0.28
#  27   -1.19   -0.47    0.11    0.47   -0.12    0.00    0.00      -1.20    1.06   -0.26
#  28   -1.08   -0.48    0.08    0.38   -0.13    0.00    0.00      -1.23    0.78   -0.26
#  29   -3.61   -0.84    0.85    0.78   -0.08    0.00    0.00      -2.91    2.04   -0.22
#  30   -6.76   -0.80    1.23    1.96   -0.13    0.00    0.00      -4.50    4.37   -0.28
#  31   -3.07   -0.76    0.41    1.72   -0.11    0.00    0.00      -1.82    4.22   -0.28
#  32   -5.14   -0.64    0.13    1.94   -0.15    0.00    0.00      -3.86    3.70   -0.28
#  33   -4.32   -0.61    0.48    2.01   -0.10    0.00    0.00      -2.54    5.48   -0.28
#  34   -1.41   -0.10    0.00    0.30   -0.02    0.00    0.00      -1.23    3.26   -0.21
#  35   -1.47   -0.11    0.00    0.29   -0.03    0.00    0.00      -1.32    3.07   -0.28
#  36   -2.55   -0.16    0.00    0.35   -0.04    0.00    0.00      -2.40    2.21   -0.28
#  37   -2.57   -0.11    0.00    0.80   -0.03    0.00    0.00      -1.90    6.47   -0.23
#  38   -4.06   -0.70    0.51    1.85   -0.10    0.00    0.00      -2.49    5.39   -0.28
#  39   -6.05   -1.03    1.46    1.25   -0.10    0.00    0.00      -4.47    3.64   -0.28
#  40  -17.84   -0.07    0.01    3.11    0.26    0.00    0.00     -14.53   12.11    1.01
#  41   -1.07   -0.04    0.00    0.21   -0.01    0.00    0.00      -0.91    5.32   -0.24
#  42   -0.12   -0.02    0.00    0.06   -0.01    0.00    0.00      -0.08    2.28   -0.28
#  43   -0.19   -0.02    0.00    0.02   -0.01    0.00    0.00      -0.20    0.77   -0.28
#  44   -0.45   -0.56    0.40    0.82   -0.09    0.00    0.00       0.12    2.67   -0.28
#  45   -2.97   -0.29    0.03    1.66   -0.09    0.00    0.00      -1.65    5.34   -0.28

@<TRIPOS>MOLECULE
          T537670        99
   45    46     0     0     0



@<TRIPOS>ATOM
      1 C1          7.8695    -8.2478    98.2992 C.3        1           0.0211
      2 O1          7.1632    -8.4626    97.0756 O.3        1          -0.3022
      3 C2          6.4402    -7.4191    96.5890 C.ar       1           0.1149
      4 C3          7.0266    -6.5141    95.7174 C.ar       1          -0.1732
      5 C4          6.2900    -5.4542    95.2240 C.ar       1          -0.0699
      6 C5          4.9687    -5.2944    95.5986 C.ar       1          -0.1421
      7 C6          4.1688    -4.1369    95.0587 C.3        1          -0.0934
      8 C7          3.4833    -4.5541    93.7561 C.3        1           0.0286
      9 C8          2.5508    -5.7366    94.0266 C.3        1          -0.1841
     10 N1          4.5003    -4.9479    92.7719 N.4        1          -0.5069
     11 H1          5.1154    -4.1682    92.5935 H          1           0.4261
     12 H2          5.0360    -5.7229    93.1334 H          1           0.4296
     13 C9          3.8423    -5.3486    91.5212 C.3        1          -0.0467
     14 C10         4.9016    -5.7586    90.4962 C.3        1           0.1359
     15 O2          5.9325    -6.5027    91.1484 O.3        1          -0.5435
     16 C11         4.2646    -6.6116    89.4293 C.ar       1          -0.1288
     17 C12         4.2132    -7.9849    89.5817 C.ar       1          -0.1044
     18 C13         3.6288    -8.7678    88.6039 C.ar       1          -0.0961
     19 C14         3.0958    -8.1781    87.4729 C.ar       1          -0.0913
     20 C15         3.1470    -6.8042    87.3200 C.ar       1          -0.0309
     21 Cl1         2.4772    -6.0629    85.9003 Cl         1          -0.0478
     22 C16         3.7270    -6.0205    88.3018 C.ar       1          -0.0941
     23 C17         4.3799    -6.1946    96.4670 C.ar       1          -0.1391
     24 C18         5.1108    -7.2607    96.9596 C.ar       1           0.0813
     25 F1          4.5342    -8.1436    97.8042 F          1          -0.1210
     26 H3          8.4036    -9.1571    98.5749 H          1           0.1132
     27 H4          8.5820    -7.4331    98.1694 H          1           0.0630
     28 H5          7.1616    -7.9892    99.0868 H          1           0.0643
     29 H6          8.0589    -6.6374    95.4245 H          1           0.1484
     30 H7          6.7471    -4.7496    94.5451 H          1           0.1408
     31 H8          3.4141    -3.8447    95.7890 H          1           0.1011
     32 H9          4.8332    -3.2946    94.8661 H          1           0.1253
     33 H10         2.9048    -3.7171    93.3657 H          1           0.1417
     34 H11         2.0624    -6.0338    93.0985 H          1           0.0824
     35 H12         3.1293    -6.5738    94.4170 H          1           0.0851
     36 H13         1.7961    -5.4444    94.7568 H          1           0.1094
     37 H14         3.1778    -6.1909    91.7139 H          1           0.1413
     38 H15         3.2637    -4.5114    91.1307 H          1           0.1450
     39 H16         5.3303    -4.8664    90.0400 H          1           0.1319
     40 H17         6.3869    -6.0146    91.8486 H          1           0.3887
     41 H18         4.6301    -8.4460    90.4648 H          1           0.1297
     42 H19         3.5888    -9.8403    88.7234 H          1           0.1425
     43 H20         2.6398    -8.7899    86.7086 H          1           0.1433
     44 H21         3.7636    -4.9474    88.1850 H          1           0.1384
     45 H22         3.3476    -6.0676    96.7581 H          1           0.1426
@<TRIPOS>BOND
     1    1    2 1
     2    1   26 1
     3    1   27 1
     4    1   28 1
     5    2    3 1
     6    3   24 ar
     7    3    4 ar
     8    4    5 ar
     9    4   29 1
    10    5    6 ar
    11    5   30 1
    12    6    7 1
    13    6   23 ar
    14    7    8 1
    15    7   31 1
    16    7   32 1
    17    8    9 1
    18    8   10 1
    19    8   33 1
    20    9   34 1
    21    9   35 1
    22    9   36 1
    23   10   11 1
    24   10   12 1
    25   10   13 1
    26   13   14 1
    27   13   37 1
    28   13   38 1
    29   14   15 1
    30   14   16 1
    31   14   39 1
    32   15   40 1
    33   16   22 ar
    34   16   17 ar
    35   17   18 ar
    36   17   41 1
    37   18   19 ar
    38   18   42 1
    39   19   20 ar
    40   19   43 1
    41   20   21 1
    42   20   22 ar
    43   22   44 1
    44   23   24 ar
    45   23   45 1
    46   24   25 1
##########                 Name:              T540792
##########          Protonation:                   71
##########               SMILES:   Cc1c(c(nc([nH+]1)N)N)OCCCOc2cccc(c2Cl)Cl
##########            Long Name:   5-[3-(2,3-dichlorophenoxy)propoxy]-6-methyl-pyrimidin-1-ium-2,4-diamine
##########          FlexRecCode: 1
##########               Number:                  202
##########   Ligand Source File: /raidb/db2/rgc/tcams/tcams-0002015.db2.gz
##########           GlobalRank: 482
##########                 Rank:                    1
##########               Setnum:                  147
##########             Matchnum:                 3265
##########                Cloud:                    1
##########        Electrostatic:           -42.835934
##########        Van der Waals:           -26.955942
##########  Ligand Polar Desolv:             9.054454
########## Ligand Apolar Desolv:            -2.844888
##########      Internal Energy:             0.000000
##########      Receptor Energy: 0.0
########## Receptor Desolvation:             0.000000
########## Receptor Hydrophobic:             0.000000
##########         Total Energy: -63.58
##########        Ligand Charge:             1.000000
##########            Arbitrary:    +999.9990
##########     heavy atom count:   22
##########           pose count:    1
##########        Ligand Energy:             0.000000
# num electro vdwattr vdwrepu polsolv apolsol rdesolv rhydroe totalscore fullpol fullapo
#   1    3.28   -1.74    0.85   -1.96   -0.11    0.00    0.00       0.32   -3.67   -0.20
#   2   -5.79   -1.44    0.17    2.78   -0.32    0.00    0.00      -4.60    6.47   -0.75
#   3    1.28   -1.07    0.07   -0.75   -0.09    0.00    0.00      -0.56   -2.10   -0.26
#   4    7.88   -0.95    0.05   -2.32    0.29    0.00    0.00       4.96   -6.08    0.77
#   5   -1.15   -0.51    0.02    0.36   -0.03    0.00    0.00      -1.32    1.27   -0.12
#   6    3.00   -0.73    0.06   -0.70   -0.09    0.00    0.00       1.53   -1.88   -0.25
#   7   -1.08   -0.82    0.15    0.18   -0.03    0.00    0.00      -1.60    0.58   -0.09
#   8    2.46   -0.94    0.09   -1.03    0.27    0.00    0.00       0.86   -3.16    0.84
#   9   -1.22   -1.34    0.15    0.43   -0.11    0.00    0.00      -2.10    1.17   -0.31
#  10    2.58   -1.57    0.21   -1.02   -0.20    0.00    0.00       0.00   -2.12   -0.42
#  11    0.89   -2.05    0.61   -0.29   -0.25    0.00    0.00      -1.09   -0.56   -0.47
#  12    1.33   -2.00    0.74   -0.63   -0.24    0.00    0.00      -0.80   -1.19   -0.46
#  13   -0.04   -1.56    0.24   -0.09   -0.15    0.00    0.00      -1.59   -0.18   -0.29
#  14    0.27   -4.02    0.91   -0.16   -0.55    0.00    0.00      -3.55   -0.27   -0.95
#  15    0.34   -1.48    0.20   -0.23   -0.11    0.00    0.00      -1.28   -0.59   -0.29
#  16    0.00   -5.45    4.74   -0.10   -0.36    0.00    0.00      -1.16   -0.26   -0.95
#  17  -12.29   -1.14    0.13    3.20   -0.70    0.00    0.00     -10.81    9.73   -2.13
#  18   22.96   -2.34    1.25   -5.72    0.34    0.00    0.00      16.50  -15.36    0.92
#  19   11.71   -1.04    0.08   -4.15    0.69    0.00    0.00       7.28  -12.38    2.07
#  20  -17.90   -1.38    0.23    5.75   -1.86    0.00    0.00     -15.16   15.29   -4.94
#  21   23.77   -2.35    1.17   -8.11    0.40    0.00    0.00      14.87  -19.34    0.95
#  22   18.76   -2.57    2.15   -6.14    0.43    0.00    0.00      12.62  -13.84    0.97
#  23  -22.70   -0.24    0.19    5.89    0.24    0.00    0.00     -16.62   14.21    0.58
#  24   -2.41   -0.43    0.09    1.54   -0.11    0.00    0.00      -1.32    3.78   -0.28
#  25   -3.37   -0.95    1.06    1.25   -0.15    0.00    0.00      -2.16    2.18   -0.26
#  26   -1.92   -0.61    0.36    1.69   -0.13    0.00    0.00      -0.61    3.67   -0.28
#  27   -0.84   -0.18    0.02    0.40   -0.05    0.00    0.00      -0.64    2.47   -0.28
#  28   -1.43   -0.11    0.00    0.22   -0.03    0.00    0.00      -1.35    1.90   -0.28
#  29   -3.36   -0.34    0.08    0.33   -0.10    0.00    0.00      -3.40    0.92   -0.28
#  30   -2.04   -0.30    0.08    0.25   -0.07    0.00    0.00      -2.09    1.02   -0.28
#  31   -1.28   -0.19    0.02    0.34   -0.05    0.00    0.00      -1.15    1.98   -0.26
#  32   -1.33   -0.66    0.54    0.51   -0.07    0.00    0.00      -1.00    1.84   -0.26
#  33   -2.22   -0.29    0.02    1.21   -0.07    0.00    0.00      -1.35    3.62   -0.22
#  34   -2.97   -0.51    0.11    1.47   -0.14    0.00    0.00      -2.03    3.02   -0.28
#  35   -1.36   -0.46    0.16    0.65   -0.13    0.00    0.00      -1.14    1.36   -0.28
#  36  -17.93   -0.04    0.00    2.83    0.18    0.00    0.00     -14.95    8.80    0.55
#  37  -10.63   -0.07    0.01    2.95    0.21    0.00    0.00      -7.54    8.46    0.59
#  38  -11.36   -0.03    0.00    2.65    0.15    0.00    0.00      -8.59   10.73    0.59
#  39  -16.72   -0.08    0.01    5.57    0.26    0.00    0.00     -10.96   12.75    0.59

@<TRIPOS>MOLECULE
          T540792        71
   39    40     0     0     0



@<TRIPOS>ATOM
      1 C1          2.1172    -6.1518    97.3104 C.3        1          -0.1416
      2 C2          1.6814    -5.6594    95.9543 C.ar       1           0.2242
      3 C3          2.6210    -5.2586    95.0199 C.ar       1          -0.0521
      4 O1          3.9510    -5.3012    95.3064 O.3        1          -0.2932
      5 C4          4.6439    -6.5109    94.9921 C.3        1           0.0550
      6 C5          6.1167    -6.3710    95.3823 C.3        1          -0.1218
      7 C6          6.8585    -7.6661    95.0457 C.3        1           0.0613
      8 O2          6.2748    -8.7512    95.7696 O.3        1          -0.2960
      9 C7          7.0845    -9.4277    96.6266 C.ar       1           0.1481
     10 C8          7.6911    -8.7613    97.6813 C.ar       1          -0.1965
     11 C9          8.5136    -9.4503    98.5515 C.ar       1          -0.0610
     12 C10         8.7337   -10.8036    98.3725 C.ar       1          -0.1321
     13 C11         8.1308   -11.4717    97.3216 C.ar       1           0.0058
     14 Cl1         8.4091   -13.1708    97.0997 Cl         1          -0.0303
     15 C12         7.3009   -10.7873    96.4514 C.ar       1          -0.0677
     16 Cl2         6.5379   -11.6266    95.1371 Cl         1          -0.0299
     17 C13         2.1702    -4.8088    93.7732 C.ar       1           0.5182
     18 N1          3.0739    -4.3972    92.8041 N.pl3      1          -0.7696
     19 N2          0.8639    -4.7825    93.5319 N.ar       1          -0.5662
     20 C14        -0.0015    -5.1752    94.4544 C.ar       1           0.6660
     21 N3         -1.3574    -5.1345    94.1685 N.pl3      1          -0.7886
     22 N4          0.3941    -5.6101    95.6406 N.ar       1          -0.5641
     23 H1         -0.2675    -5.8935    96.2907 H          1           0.4437
     24 H2          3.2046    -6.1179    97.3772 H          1           0.1171
     25 H3          1.6857    -5.5161    98.0837 H          1           0.1242
     26 H4          1.7763    -7.1775    97.4513 H          1           0.1049
     27 H5          4.1988    -7.3384    95.5444 H          1           0.0708
     28 H6          4.5683    -6.7053    93.9222 H          1           0.0662
     29 H7          6.5619    -5.5434    94.8301 H          1           0.0934
     30 H8          6.1921    -6.1765    96.4520 H          1           0.0952
     31 H9          6.7828    -7.8607    93.9759 H          1           0.0706
     32 H10         7.9078    -7.5667    95.3236 H          1           0.0699
     33 H11         7.5207    -7.7042    97.8218 H          1           0.1404
     34 H12         8.9858    -8.9312    99.3724 H          1           0.1444
     35 H13         9.3774   -11.3398    99.0540 H          1           0.1480
     36 H14         4.0260    -4.4196    92.9881 H          1           0.4349
     37 H15         2.7535    -4.0868    91.9427 H          1           0.4303
     38 H16        -1.6613    -4.8213    93.3021 H          1           0.4463
     39 H17        -2.0023    -5.4190    94.8348 H          1           0.4317
@<TRIPOS>BOND
     1    1    2 1
     2    1   24 1
     3    1   25 1
     4    1   26 1
     5    2   22 ar
     6    2    3 ar
     7    3    4 1
     8    3   17 ar
     9    4    5 1
    10    5    6 1
    11    5   27 1
    12    5   28 1
    13    6    7 1
    14    6   29 1
    15    6   30 1
    16    7    8 1
    17    7   31 1
    18    7   32 1
    19    8    9 1
    20    9   15 ar
    21    9   10 ar
    22   10   11 ar
    23   10   33 1
    24   11   12 ar
    25   11   34 1
    26   12   13 ar
    27   12   35 1
    28   13   14 1
    29   13   15 ar
    30   15   16 1
    31   17   18 1
    32   17   19 ar
    33   18   36 1
    34   18   37 1
    35   19   20 ar
    36   20   21 1
    37   20   22 ar
    38   21   38 1
    39   21   39 1
    40   22   23 1
##########                 Name:              T541095
##########          Protonation:                   99
##########               SMILES:   C[C@@H](Cc1ccc(c(c1)F)OC)[NH2+]C[C@H](c2cccc(c2)Cl)O
##########            Long Name:   2-hydroxy-ethyl]-[(1S)-2-(3-fluoro-4-methoxy-phenyl)-1-methyl-ethyl]ammonium
##########          FlexRecCode: 1
##########               Number:                  284
##########   Ligand Source File: /raidb/db2/rgc/tcams/tcams-more-d-0000005.db2.gz
##########           GlobalRank: 482
##########                 Rank:                    1
##########               Setnum:                  305
##########             Matchnum:                 1898
##########                Cloud:                    1
##########        Electrostatic:           -53.005592
##########        Van der Waals:           -20.370090
##########  Ligand Polar Desolv:            11.812613
########## Ligand Apolar Desolv:            -2.013131
##########      Internal Energy:             0.000000
##########      Receptor Energy: 0.0
########## Receptor Desolvation:             0.000000
########## Receptor Hydrophobic:             0.000000
##########         Total Energy: -63.58
##########        Ligand Charge:             1.000000
##########            Arbitrary:    +999.9990
##########     heavy atom count:   23
##########           pose count:    1
##########        Ligand Energy:             0.000000
# num electro vdwattr vdwrepu polsolv apolsol rdesolv rhydroe totalscore fullpol fullapo
#   1   -0.34   -1.21    0.15    0.09    0.02    0.00    0.00      -1.29    0.17    0.03
#   2    3.73   -1.06    0.07   -1.06    0.38    0.00    0.00       2.06   -2.58    0.92
#   3   -1.78   -1.18    0.10    0.06   -0.12    0.00    0.00      -2.93    0.14   -0.31
#   4    4.08   -1.61    0.30   -1.19   -0.17    0.00    0.00       1.42   -2.89   -0.42
#   5    2.30   -1.75    0.37   -0.62   -0.20    0.00    0.00       0.10   -1.37   -0.45
#   6    4.06   -1.55    0.26   -0.79   -0.14    0.00    0.00       1.83   -1.89   -0.33
#   7    3.19   -1.48    0.28   -1.31   -0.10    0.00    0.00       0.59   -2.73   -0.21
#   8   -0.92   -1.02    0.16    0.84   -0.09    0.00    0.00      -1.03    2.17   -0.24
#   9    3.96   -0.46    0.01   -1.60   -0.05    0.00    0.00       1.86   -5.95   -0.19
#  10   22.06   -2.55    2.99   -5.77    0.21    0.00    0.00      16.95  -16.84    0.62
#  11  -29.31   -0.25    0.12    5.76    0.17    0.00    0.00     -23.52   14.33    0.42
#  12  -16.41   -0.03    0.00    3.09    0.10    0.00    0.00     -13.25   16.43    0.53
#  13    1.41   -1.12    0.34   -0.23   -0.11    0.00    0.00       0.29   -0.74   -0.36
#  14   -4.23   -1.16    0.49    1.10   -0.04    0.00    0.00      -3.84    3.82   -0.14
#  15   17.22   -1.19    0.45   -3.63    0.40    0.00    0.00      13.27  -14.75    1.64
#  16    1.50   -0.54    0.03   -0.39   -0.07    0.00    0.00       0.54   -1.90   -0.35
#  17    0.78   -0.21    0.00   -0.16   -0.04    0.00    0.00       0.37   -1.77   -0.44
#  18    0.24   -0.12    0.00   -0.10   -0.03    0.00    0.00      -0.01   -1.87   -0.47
#  19    0.15   -0.17    0.00   -0.12   -0.03    0.00    0.00      -0.17   -1.72   -0.46
#  20    0.06   -0.47    0.03   -0.16   -0.05    0.00    0.00      -0.57   -0.93   -0.29
#  21    0.08   -2.34    0.88   -0.26   -0.25    0.00    0.00      -1.89   -1.03   -0.98
#  22    0.28   -0.89    0.14   -0.43   -0.11    0.00    0.00      -1.00   -1.78   -0.44
#  23    2.80   -1.45    0.20   -0.84   -0.15    0.00    0.00       0.56   -2.11   -0.38
#  24   -1.10   -1.48    0.18   -0.07   -0.14    0.00    0.00      -2.62   -0.18   -0.34
#  25    0.87   -2.32    2.06   -0.72   -0.23    0.00    0.00      -0.34   -1.47   -0.47
#  26   -1.76   -0.34    0.05    0.33   -0.10    0.00    0.00      -1.83    0.90   -0.28
#  27   -1.19   -0.47    0.11    0.47   -0.12    0.00    0.00      -1.20    1.06   -0.26
#  28   -1.08   -0.48    0.08    0.38   -0.13    0.00    0.00      -1.23    0.78   -0.26
#  29   -3.61   -0.84    0.85    0.78   -0.08    0.00    0.00      -2.91    2.04   -0.22
#  30   -6.76   -0.80    1.23    1.96   -0.13    0.00    0.00      -4.50    4.37   -0.28
#  31   -3.07   -0.76    0.41    1.72   -0.11    0.00    0.00      -1.82    4.22   -0.28
#  32   -5.14   -0.64    0.13    1.94   -0.15    0.00    0.00      -3.86    3.70   -0.28
#  33   -4.32   -0.61    0.48    2.01   -0.10    0.00    0.00      -2.54    5.48   -0.28
#  34   -1.41   -0.10    0.00    0.30   -0.02    0.00    0.00      -1.23    3.26   -0.21
#  35   -1.47   -0.11    0.00    0.29   -0.03    0.00    0.00      -1.32    3.07   -0.28
#  36   -2.55   -0.16    0.00    0.35   -0.04    0.00    0.00      -2.40    2.21   -0.28
#  37   -2.57   -0.11    0.00    0.80   -0.03    0.00    0.00      -1.90    6.47   -0.23
#  38   -4.06   -0.70    0.51    1.85   -0.10    0.00    0.00      -2.49    5.39   -0.28
#  39   -6.05   -1.03    1.46    1.25   -0.10    0.00    0.00      -4.47    3.64   -0.28
#  40  -17.84   -0.07    0.01    3.11    0.26    0.00    0.00     -14.53   12.11    1.01
#  41   -1.07   -0.04    0.00    0.21   -0.01    0.00    0.00      -0.91    5.32   -0.24
#  42   -0.12   -0.02    0.00    0.06   -0.01    0.00    0.00      -0.08    2.28   -0.28
#  43   -0.19   -0.02    0.00    0.02   -0.01    0.00    0.00      -0.20    0.77   -0.28
#  44   -0.45   -0.56    0.40    0.82   -0.09    0.00    0.00       0.12    2.67   -0.28
#  45   -2.97   -0.29    0.03    1.66   -0.09    0.00    0.00      -1.65    5.34   -0.28

@<TRIPOS>MOLECULE
          T541095        99
   45    46     0     0     0



@<TRIPOS>ATOM
      1 C1          7.8695    -8.2478    98.2992 C.3        1           0.0211
      2 O1          7.1632    -8.4626    97.0756 O.3        1          -0.3022
      3 C2          6.4402    -7.4191    96.5890 C.ar       1           0.1149
      4 C3          7.0266    -6.5141    95.7174 C.ar       1          -0.1732
      5 C4          6.2900    -5.4542    95.2240 C.ar       1          -0.0699
      6 C5          4.9687    -5.2944    95.5986 C.ar       1          -0.1421
      7 C6          4.1688    -4.1369    95.0587 C.3        1          -0.0934
      8 C7          3.4833    -4.5541    93.7561 C.3        1           0.0286
      9 C8          2.5508    -5.7366    94.0266 C.3        1          -0.1841
     10 N1          4.5003    -4.9479    92.7719 N.4        1          -0.5069
     11 H1          5.1154    -4.1682    92.5935 H          1           0.4261
     12 H2          5.0360    -5.7229    93.1334 H          1           0.4296
     13 C9          3.8422    -5.3486    91.5212 C.3        1          -0.0467
     14 C10         4.9016    -5.7586    90.4962 C.3        1           0.1359
     15 O2          5.9325    -6.5027    91.1483 O.3        1          -0.5435
     16 C11         4.2646    -6.6116    89.4293 C.ar       1          -0.1288
     17 C12         4.2132    -7.9849    89.5817 C.ar       1          -0.1044
     18 C13         3.6288    -8.7678    88.6039 C.ar       1          -0.0961
     19 C14         3.0958    -8.1781    87.4729 C.ar       1          -0.0913
     20 C15         3.1470    -6.8042    87.3200 C.ar       1          -0.0309
     21 Cl1         2.4772    -6.0629    85.9002 Cl         1          -0.0478
     22 C16         3.7270    -6.0205    88.3018 C.ar       1          -0.0941
     23 C17         4.3799    -6.1946    96.4670 C.ar       1          -0.1391
     24 C18         5.1108    -7.2607    96.9596 C.ar       1           0.0813
     25 F1          4.5342    -8.1436    97.8042 F          1          -0.1210
     26 H3          8.4036    -9.1571    98.5749 H          1           0.1132
     27 H4          8.5820    -7.4331    98.1694 H          1           0.0630
     28 H5          7.1616    -7.9893    99.0868 H          1           0.0643
     29 H6          8.0589    -6.6374    95.4245 H          1           0.1484
     30 H7          6.7471    -4.7496    94.5451 H          1           0.1408
     31 H8          3.4141    -3.8447    95.7890 H          1           0.1011
     32 H9          4.8332    -3.2946    94.8660 H          1           0.1253
     33 H10         2.9048    -3.7171    93.3657 H          1           0.1417
     34 H11         2.0624    -6.0338    93.0985 H          1           0.0824
     35 H12         3.1293    -6.5738    94.4170 H          1           0.0851
     36 H13         1.7961    -5.4444    94.7568 H          1           0.1094
     37 H14         3.1778    -6.1909    91.7139 H          1           0.1413
     38 H15         3.2637    -4.5114    91.1307 H          1           0.1450
     39 H16         5.3303    -4.8664    90.0400 H          1           0.1319
     40 H17         6.3870    -6.0146    91.8486 H          1           0.3887
     41 H18         4.6301    -8.4460    90.4648 H          1           0.1297
     42 H19         3.5888    -9.8403    88.7234 H          1           0.1425
     43 H20         2.6398    -8.7899    86.7086 H          1           0.1433
     44 H21         3.7636    -4.9474    88.1850 H          1           0.1384
     45 H22         3.3476    -6.0676    96.7581 H          1           0.1426
@<TRIPOS>BOND
     1    1    2 1
     2    1   26 1
     3    1   27 1
     4    1   28 1
     5    2    3 1
     6    3   24 ar
     7    3    4 ar
     8    4    5 ar
     9    4   29 1
    10    5    6 ar
    11    5   30 1
    12    6    7 1
    13    6   23 ar
    14    7    8 1
    15    7   31 1
    16    7   32 1
    17    8    9 1
    18    8   10 1
    19    8   33 1
    20    9   34 1
    21    9   35 1
    22    9   36 1
    23   10   11 1
    24   10   12 1
    25   10   13 1
    26   13   14 1
    27   13   37 1
    28   13   38 1
    29   14   15 1
    30   14   16 1
    31   14   39 1
    32   15   40 1
    33   16   22 ar
    34   16   17 ar
    35   17   18 ar
    36   17   41 1
    37   18   19 ar
    38   18   42 1
    39   19   20 ar
    40   19   43 1
    41   20   21 1
    42   20   22 ar
    43   22   44 1
    44   23   24 ar
    45   23   45 1
    46   24   25 1
##########                 Name:              T529880
##########          Protonation:                   47
##########               SMILES:   CCCc1ccccc1/N=c/2\[nH]c(cc([nH+]2)C)N(CC)CCC[NH+]3CCCCC3
##########            Long Name:   peridin-1-ium-1-ylpropyl)-2-(2-propylphenyl)imino-1H-pyrimidin-3-ium-6-amine
##########          FlexRecCode: 1
##########               Number:                  342
##########   Ligand Source File: /raidb/db2/rgc/tcams/tcams-0000599.db2.gz
##########           GlobalRank: 484
##########                 Rank:                    1
##########               Setnum:                  184
##########             Matchnum:                 1883
##########                Cloud:                    1
##########        Electrostatic:           -54.999882
##########        Van der Waals:           -16.356056
##########  Ligand Polar Desolv:            11.262178
########## Ligand Apolar Desolv:            -3.472551
##########      Internal Energy:             0.000000
##########      Receptor Energy: 0.0
########## Receptor Desolvation:             0.000000
########## Receptor Hydrophobic:             0.000000
##########         Total Energy: -63.57
##########        Ligand Charge:             2.000000
##########            Arbitrary:    +999.9990
##########     heavy atom count:   29
##########           pose count:    1
##########        Ligand Energy:             0.000000
# num electro vdwattr vdwrepu polsolv apolsol rdesolv rhydroe totalscore fullpol fullapo
#   1    0.22   -0.47    0.06   -0.75   -0.04    0.00    0.00      -0.99   -3.41   -0.19
#   2    0.18   -0.51    0.11   -0.39   -0.05    0.00    0.00      -0.67   -1.85   -0.25
#   3    0.16   -0.25    0.03   -0.19   -0.02    0.00    0.00      -0.27   -1.68   -0.21
#   4    0.11   -0.33    0.02   -0.27   -0.04    0.00    0.00      -0.51   -2.34   -0.36
#   5    0.14   -0.19    0.00   -0.20   -0.04    0.00    0.00      -0.28   -2.55   -0.45
#   6    0.16   -0.33    0.01   -0.44   -0.06    0.00    0.00      -0.65   -3.42   -0.47
#   7    0.18   -0.78    0.09   -0.51   -0.10    0.00    0.00      -1.12   -2.34   -0.47
#   8    0.43   -0.83    0.09   -1.30   -0.10    0.00    0.00      -1.72   -4.88   -0.36
#   9   -0.23   -0.66    0.09    0.54   -0.11    0.00    0.00      -0.37    2.89   -0.59
#  10    1.88   -2.59    3.24   -3.70    0.44    0.00    0.00      -0.72  -15.73    1.87
#  11   -2.77   -1.24    0.59    4.03   -1.00    0.00    0.00      -0.38   18.53   -4.59
#  12    5.27   -0.39    0.01   -3.30    0.14    0.00    0.00       1.73  -21.53    0.92
#  13   -8.31   -0.41    0.01    3.16   -0.32    0.00    0.00      -5.87   19.75   -2.01
#  14    6.27   -0.57    0.03   -2.44   -0.09    0.00    0.00       3.20  -11.49   -0.42
#  15   -6.45   -0.82    0.06    3.16   -0.22    0.00    0.00      -4.26   10.61   -0.75
#  16    3.81   -1.09    0.32   -1.85   -0.08    0.00    0.00       1.11   -5.15   -0.21
#  17    8.91   -2.04    1.34   -5.03    0.28    0.00    0.00       3.47  -17.48    0.97
#  18  -12.33   -0.12    0.02    4.73    0.19    0.00    0.00      -7.51   14.13    0.58
#  19    9.67   -0.41    0.02   -3.30    0.22    0.00    0.00       6.20  -20.32    1.38
#  20   -1.04   -0.16    0.00    0.39   -0.05    0.00    0.00      -0.84    3.80   -0.44
#  21    2.33   -0.48    0.10   -1.13   -0.04    0.00    0.00       0.78   -6.21   -0.21
#  22   -2.60   -0.84    0.28    0.60   -0.09    0.00    0.00      -2.66    2.47   -0.39
#  23    3.46   -0.35    0.03   -1.39   -0.04    0.00    0.00       1.70   -7.81   -0.22
#  24    0.26   -0.70    0.13   -0.05   -0.09    0.00    0.00      -0.45   -0.21   -0.35
#  25   13.64   -1.38    0.93   -4.11    0.07    0.00    0.00       9.15  -15.35    0.27
#  26  -19.56   -0.06    0.01    4.75    0.13    0.00    0.00     -14.74   20.31    0.54
#  27    0.24   -0.42    0.02    0.06   -0.08    0.00    0.00      -0.17    0.29   -0.37
#  28    2.93   -0.53    0.02   -1.41   -0.07    0.00    0.00       0.94   -4.83   -0.25
#  29    3.74   -0.99    0.16   -1.81   -0.10    0.00    0.00       1.00   -4.52   -0.25
#  30    5.94   -1.61    0.56   -2.47   -0.13    0.00    0.00       2.31   -4.93   -0.25
#  31    0.32   -1.71    1.13    0.32   -0.16    0.00    0.00      -0.10    0.79   -0.38
#  32   -0.08   -0.28    0.09    0.07   -0.07    0.00    0.00      -0.27    0.30   -0.28
#  33   -0.10   -0.14    0.03    0.06   -0.03    0.00    0.00      -0.19    0.49   -0.28
#  34   -0.05   -0.07    0.00    0.11   -0.02    0.00    0.00      -0.03    1.48   -0.28
#  35   -0.13   -0.49    0.49    0.61   -0.06    0.00    0.00       0.42    2.65   -0.28
#  36   -0.06   -0.09    0.00    0.23   -0.03    0.00    0.00       0.06    2.39   -0.28
#  37   -0.12   -0.02    0.00    0.01   -0.01    0.00    0.00      -0.13    0.56   -0.27
#  38   -0.19   -0.11    0.03    0.05   -0.03    0.00    0.00      -0.25    0.48   -0.28
#  39   -0.16   -0.02    0.00    0.07   -0.01    0.00    0.00      -0.11    2.65   -0.28
#  40   -0.16   -0.05    0.00    0.21   -0.02    0.00    0.00      -0.02    3.56   -0.28
#  41   -0.18   -0.29    0.07    1.01   -0.06    0.00    0.00       0.55    4.50   -0.28
#  42   -0.33   -0.33    0.10    0.97   -0.07    0.00    0.00       0.34    3.97   -0.27
#  43   -2.37    0.00    0.00    0.80    0.01    0.00    0.00      -1.56   16.42    0.27
#  44   -3.91   -0.14    0.01    1.16   -0.03    0.00    0.00      -2.91    8.54   -0.21
#  45   -4.11   -0.76    0.69    1.64   -0.10    0.00    0.00      -2.65    4.41   -0.28
#  46   -3.63   -0.47    0.18    1.00   -0.09    0.00    0.00      -3.02    3.02   -0.28
#  47   -1.51   -0.17    0.02    0.76   -0.05    0.00    0.00      -0.94    4.53   -0.28
#  48   -0.84   -0.03    0.00    0.21   -0.01    0.00    0.00      -0.68    6.05   -0.28
#  49   -0.81   -0.03    0.00    0.15   -0.01    0.00    0.00      -0.69    4.88   -0.22
#  50   -0.82   -0.12    0.02    0.17   -0.03    0.00    0.00      -0.78    1.68   -0.28
#  51   -0.95   -0.24    0.08    0.25   -0.05    0.00    0.00      -0.90    1.55   -0.28
#  52   -1.16   -0.17    0.03    0.27   -0.04    0.00    0.00      -1.08    1.77   -0.28
#  53   -4.80   -0.45    0.34    1.52   -0.07    0.00    0.00      -3.45    6.45   -0.28
#  54   -3.53   -0.54    0.31    1.09   -0.06    0.00    0.00      -2.72    4.20   -0.22
#  55   -1.07   -0.06    0.00    0.26   -0.01    0.00    0.00      -0.89    4.22   -0.22
#  56   -1.44   -0.06    0.00    0.33   -0.02    0.00    0.00      -1.18    6.17   -0.28
#  57   -5.02   -0.48    0.20    2.51   -0.08    0.00    0.00      -2.87    8.44   -0.28
#  58   -2.31   -0.10    0.00    0.75   -0.03    0.00    0.00      -1.69    6.99   -0.28
#  59   -1.99   -0.11    0.00    0.52   -0.03    0.00    0.00      -1.60    5.63   -0.28
#  60   -1.46   -0.11    0.01    0.75   -0.02    0.00    0.00      -0.84    7.16   -0.22
#  61   -1.29   -0.18    0.01    0.30   -0.05    0.00    0.00      -1.20    1.88   -0.28
#  62   -2.10   -0.18    0.01    0.57   -0.05    0.00    0.00      -1.74    3.10   -0.28
#  63   -2.04   -0.26    0.02    0.41   -0.07    0.00    0.00      -1.93    1.71   -0.28
#  64   -2.36   -0.64    0.58   -0.03   -0.09    0.00    0.00      -2.53   -0.10   -0.28
#  65   -4.50   -0.68    0.17    0.79   -0.15    0.00    0.00      -4.36    1.50   -0.28
#  66   -4.49   -0.85    1.28    1.35   -0.13    0.00    0.00      -2.83    2.94   -0.28
#  67   -7.80   -1.55    3.05    3.19   -0.13    0.00    0.00      -3.23    7.04   -0.28
#  68   -4.11   -0.25    0.02    1.44   -0.07    0.00    0.00      -2.97    5.56   -0.28

@<TRIPOS>MOLECULE
          T529880        47
   68    70     0     0     0



@<TRIPOS>ATOM
      1 C1          6.9197   -11.0130    83.1844 C.3        1          -0.1589
      2 C2          5.8527    -9.9336    83.3781 C.3        1          -0.1044
      3 C3          5.6662    -9.6629    84.8722 C.3        1          -0.0893
      4 C4          4.6152    -8.5999    85.0628 C.ar       1          -0.0552
      5 C5          3.2900    -8.9552    85.2031 C.ar       1          -0.0973
      6 C6          2.3236    -7.9803    85.3780 C.ar       1          -0.1125
      7 C7          2.6780    -6.6429    85.4132 C.ar       1          -0.1044
      8 C8          3.9988    -6.2722    85.2738 C.ar       1          -0.1752
      9 C9          4.9816    -7.2516    85.1033 C.ar       1           0.0827
     10 N1          6.2929    -6.8926    84.9712 N.2        1          -0.4933
     11 C10         7.0630    -6.7890    86.0448 C.2        1           0.5617
     12 N2          6.5764    -7.1780    87.2703 N.pl3      1          -0.6413
     13 C11         7.3718    -7.0708    88.3775 C.2        1           0.5438
     14 C12         8.6549    -6.5698    88.2328 C.2        1          -0.3401
     15 C13         9.0972    -6.1912    86.9714 C.2        1           0.3379
     16 C14        10.4909    -5.6442    86.7988 C.3        1          -0.1558
     17 N3          8.3058    -6.3128    85.9229 N.pl3      1          -0.5447
     18 H1          8.6305    -6.0480    85.0480 H          1           0.4616
     19 N4          6.9067    -7.4524    89.6097 N.pl3      1          -0.5566
     20 C15         7.0942    -8.8309    90.0688 C.3        1           0.0958
     21 C16         7.9179    -8.8315    91.3581 C.3        1          -0.1831
     22 C17         6.2226    -6.4815    90.4673 C.3        1           0.0891
     23 C18         4.8023    -6.9704    90.7589 C.3        1          -0.1789
     24 C19         4.0878    -5.9563    91.6546 C.3        1          -0.0097
     25 N5          4.8251    -5.8128    92.9169 N.4        1          -0.3817
     26 H2          5.8164    -5.8163    92.7284 H          1           0.4248
     27 C20         4.4936    -6.9330    93.8056 C.3        1          -0.0126
     28 C21         5.3200    -6.8324    95.0895 C.3        1          -0.1456
     29 C22         5.0018    -5.5095    95.7925 C.3        1          -0.1407
     30 C23         5.2810    -4.3513    94.8302 C.3        1          -0.1474
     31 C24         4.4548    -4.5447    93.5568 C.3        1          -0.0074
     32 H3          7.0526   -11.2058    82.1199 H          1           0.0636
     33 H4          7.8627   -10.6725    83.6124 H          1           0.0593
     34 H5          6.6043   -11.9294    83.6832 H          1           0.0567
     35 H6          6.1682    -9.0172    82.8793 H          1           0.0569
     36 H7          4.9098   -10.2741    82.9500 H          1           0.0440
     37 H8          5.3507   -10.5794    85.3710 H          1           0.0878
     38 H9          6.6091    -9.3225    85.3002 H          1           0.0828
     39 H10         3.0058    -9.9966    85.1759 H          1           0.1374
     40 H11         1.2875    -8.2646    85.4874 H          1           0.1348
     41 H12         1.9182    -5.8876    85.5497 H          1           0.1334
     42 H13         4.2739    -5.2282    85.3007 H          1           0.1209
     43 H14         5.6744    -7.5260    87.3490 H          1           0.4400
     44 H15         9.3039    -6.4743    89.0907 H          1           0.1962
     45 H16        10.6592    -5.4033    85.7491 H          1           0.1305
     46 H17        10.6047    -4.7429    87.4011 H          1           0.1103
     47 H18        11.2167    -6.3907    87.1211 H          1           0.1260
     48 H19         6.1221    -9.2861    90.2584 H          1           0.1094
     49 H20         7.6190    -9.4009    89.3021 H          1           0.1082
     50 H21         8.0573    -9.8573    91.6997 H          1           0.0950
     51 H22         8.8900    -8.3763    91.1686 H          1           0.0698
     52 H23         7.3930    -8.2615    92.1248 H          1           0.0686
     53 H24         6.7697    -6.3750    91.4041 H          1           0.1295
     54 H25         6.1781    -5.5172    89.9610 H          1           0.0930
     55 H26         4.2553    -7.0768    89.8223 H          1           0.0895
     56 H27         4.8468    -7.9344    91.2654 H          1           0.1093
     57 H28         4.0432    -4.9921    91.1481 H          1           0.1428
     58 H29         3.0759    -6.3046    91.8624 H          1           0.1342
     59 H30         3.4327    -6.8981    94.0532 H          1           0.1300
     60 H31         4.7176    -7.8738    93.3027 H          1           0.1222
     61 H32         5.0710    -7.6639    95.7488 H          1           0.1137
     62 H33         6.3812    -6.8675    94.8431 H          1           0.0892
     63 H34         3.9518    -5.4955    96.0848 H          1           0.0833
     64 H35         5.6292    -5.4071    96.6779 H          1           0.0987
     65 H36         5.0042    -3.4096    95.3042 H          1           0.1173
     66 H37         6.3414    -4.3349    94.5784 H          1           0.0898
     67 H38         4.6501    -3.7211    92.8701 H          1           0.1338
     68 H39         3.3947    -4.5621    93.8098 H          1           0.1308
@<TRIPOS>BOND
     1    1    2 1
     2    1   32 1
     3    1   33 1
     4    1   34 1
     5    2    3 1
     6    2   35 1
     7    2   36 1
     8    3    4 1
     9    3   37 1
    10    3   38 1
    11    4    9 ar
    12    4    5 ar
    13    5    6 ar
    14    5   39 1
    15    6    7 ar
    16    6   40 1
    17    7    8 ar
    18    7   41 1
    19    8    9 ar
    20    8   42 1
    21    9   10 1
    22   10   11 2
    23   11   17 1
    24   11   12 1
    25   12   13 1
    26   12   43 1
    27   13   14 2
    28   13   19 1
    29   14   15 1
    30   14   44 1
    31   15   16 1
    32   15   17 2
    33   16   45 1
    34   16   46 1
    35   16   47 1
    36   17   18 1
    37   19   20 1
    38   19   22 1
    39   20   21 1
    40   20   48 1
    41   20   49 1
    42   21   50 1
    43   21   51 1
    44   21   52 1
    45   22   23 1
    46   22   53 1
    47   22   54 1
    48   23   24 1
    49   23   55 1
    50   23   56 1
    51   24   25 1
    52   24   57 1
    53   24   58 1
    54   25   26 1
    55   25   31 1
    56   25   27 1
    57   27   28 1
    58   27   59 1
    59   27   60 1
    60   28   29 1
    61   28   61 1
    62   28   62 1
    63   29   30 1
    64   29   63 1
    65   29   64 1
    66   30   31 1
    67   30   65 1
    68   30   66 1
    69   31   67 1
    70   31   68 1
##########                 Name:              T530120
##########          Protonation:                   12
##########               SMILES:   CC1(NC(=[NH2+])NC(=[NH2+])N1OCCCOc2ccc(cc2)N)C
##########            Long Name:   xy)propoxy]-4-azaniumylidene-6,6-dimethyl-1,3,5-triazinan-2-ylidene]ammonium
##########          FlexRecCode: 1
##########               Number:                    4
##########   Ligand Source File: /raidb/db2/rgc/tcams/tcams-0000645.db2.gz
##########           GlobalRank: 484
##########                 Rank:                    1
##########               Setnum:                   53
##########             Matchnum:                 1105
##########                Cloud:                    1
##########        Electrostatic:           -56.298363
##########        Van der Waals:           -26.933661
##########  Ligand Polar Desolv:            21.153053
########## Ligand Apolar Desolv:            -1.491336
##########      Internal Energy:             0.000000
##########      Receptor Energy: 0.0
########## Receptor Desolvation:             0.000000
########## Receptor Hydrophobic:             0.000000
##########         Total Energy: -63.57
##########        Ligand Charge:             2.000000
##########            Arbitrary:    +999.9990
##########     heavy atom count:   22
##########           pose count:    1
##########        Ligand Energy:             0.000000
# num electro vdwattr vdwrepu polsolv apolsol rdesolv rhydroe totalscore fullpol fullapo
#   1    2.52   -1.31    0.32   -3.86   -0.09    0.00    0.00      -2.42   -8.04   -0.18
#   2   -8.47   -0.69    0.04    7.20   -0.15    0.00    0.00      -2.07   17.74   -0.38
#   3    4.69   -1.67    0.46   -3.29   -0.08    0.00    0.00       0.11   -6.69   -0.16
#   4   14.62   -0.94    0.07  -11.21    0.53    0.00    0.00       3.07  -32.02    1.52
#   5  -15.08   -0.72    0.03   10.61   -1.29    0.00    0.00      -6.45   37.31   -4.53
#   6   14.31   -0.98    0.09  -10.24    0.29    0.00    0.00       3.46  -31.32    0.89
#   7  -13.62   -0.03    0.00    6.47    0.16    0.00    0.00      -7.02   23.55    0.60
#   8   -8.05   -0.01    0.00    4.18    0.10    0.00    0.00      -3.79   24.42    0.60
#   9   12.85   -0.75    0.05   -7.94    0.29    0.00    0.00       4.50  -31.07    1.15
#  10  -20.76   -0.98    0.07   10.96   -1.35    0.00    0.00     -12.05   35.58   -4.37
#  11   27.62   -2.68    1.19  -12.98    0.38    0.00    0.00      13.53  -30.52    0.89
#  12  -20.74   -0.08    0.01    9.94    0.25    0.00    0.00     -10.63   24.00    0.60
#  13  -22.44   -0.05    0.00    8.63    0.18    0.00    0.00     -13.68   21.31    0.45
#  14   10.84   -0.77    0.02   -6.31    0.26    0.00    0.00       4.04  -20.97    0.87
#  15    1.38   -0.66    0.02   -1.17    0.13    0.00    0.00      -0.30   -3.97    0.43
#  16   -0.11   -0.47    0.03    0.19   -0.03    0.00    0.00      -0.39    0.80   -0.13
#  17    2.45   -0.85    0.20   -0.94   -0.07    0.00    0.00       0.78   -3.20   -0.25
#  18   -1.02   -0.93    0.19    0.25   -0.03    0.00    0.00      -1.54    0.73   -0.09
#  19    2.13   -1.01    0.10   -2.05    0.30    0.00    0.00      -0.53   -6.11    0.90
#  20   -0.35   -1.45    0.20    0.34   -0.11    0.00    0.00      -1.38    0.91   -0.31
#  21    0.58   -1.84    0.35   -1.02   -0.18    0.00    0.00      -2.12   -2.39   -0.43
#  22    1.08   -1.95    0.33   -1.44   -0.25    0.00    0.00      -2.24   -2.60   -0.46
#  23   -1.45   -2.20    0.63    0.87   -0.42    0.00    0.00      -2.57    1.52   -0.73
#  24    3.15   -4.25    2.27   -6.97    0.58    0.00    0.00      -5.22  -10.89    0.91
#  25    1.75   -2.18    1.03   -1.11   -0.24    0.00    0.00      -0.75   -2.11   -0.46
#  26    1.00   -1.63    0.34   -0.76   -0.20    0.00    0.00      -1.25   -1.74   -0.46
#  27   -1.76   -0.66    0.39    1.59   -0.13    0.00    0.00      -0.57    3.39   -0.27
#  28   -0.21   -0.60    0.52    1.32   -0.09    0.00    0.00       0.94    4.16   -0.28
#  29   -0.98   -0.39    0.07    1.94   -0.10    0.00    0.00       0.54    5.09   -0.26
#  30   -2.85   -0.67    0.47    1.01   -0.11    0.00    0.00      -2.14    2.48   -0.27
#  31   -3.19   -0.60    0.15    1.12   -0.15    0.00    0.00      -2.67    2.12   -0.28
#  32   -3.22   -0.94    0.75    1.84   -0.13    0.00    0.00      -1.70    3.89   -0.28
#  33   -9.58   -0.02    0.00    6.18    0.17    0.00    0.00      -3.25   21.22    0.58
#  34   -7.47   -0.01    0.00    3.94    0.09    0.00    0.00      -3.46   25.93    0.59
#  35   -0.52   -0.23    0.08    0.69   -0.04    0.00    0.00      -0.03    4.34   -0.27
#  36   -1.57   -0.12    0.01    0.61   -0.02    0.00    0.00      -1.08    5.75   -0.22
#  37   -1.67   -0.25    0.06    0.37   -0.05    0.00    0.00      -1.54    1.95   -0.28
#  38   -3.23   -0.46    0.23    0.39   -0.08    0.00    0.00      -3.16    1.32   -0.28
#  39   -1.07   -0.78    0.82    0.64   -0.08    0.00    0.00      -0.48    2.27   -0.27
#  40   -1.06   -0.21    0.01    0.62   -0.06    0.00    0.00      -0.70    2.89   -0.27
#  41   -0.04   -0.52    0.18    1.48   -0.07    0.00    0.00       1.03    4.44   -0.22
#  42   -1.09   -0.47    0.10    1.24   -0.14    0.00    0.00      -0.36    2.43   -0.28
#  43   -0.57   -0.16    0.03    3.65    0.38    0.00    0.00       3.32    5.74    0.59
#  44   -1.09   -0.07    0.00    3.27    0.38    0.00    0.00       2.49    5.07    0.59
#  45   -1.98   -0.50    0.18    0.54   -0.13    0.00    0.00      -1.89    1.19   -0.28
#  46   -1.98   -0.28    0.02    0.39   -0.08    0.00    0.00      -1.93    1.32   -0.28

@<TRIPOS>MOLECULE
          T530120        12
   46    47     0     0     0



@<TRIPOS>ATOM
      1 C1          2.7357    -7.3027    96.7918 C.3        1          -0.1920
      2 C2          2.3883    -6.1957    95.7944 C.3        1           0.4027
      3 C3          2.0489    -4.9039    96.5406 C.3        1          -0.1745
      4 N1          1.2512    -6.6099    94.9543 N.pl3      1          -0.7061
      5 C4          1.0004    -5.8700    93.8077 C.cat      1           0.7710
      6 N2         -0.2032    -5.4960    93.4790 N.pl3      1          -0.6663
      7 H1         -0.9560    -5.7343    94.0425 H          1           0.4688
      8 H2         -0.3469    -4.9793    92.6709 H          1           0.4606
      9 N3          2.1106    -5.5495    93.0277 N.pl3      1          -0.6707
     10 C5          3.2712    -5.2274    93.7300 C.cat      1           0.7651
     11 N4          4.0775    -4.2849    93.3324 N.pl3      1          -0.6717
     12 H3          3.8778    -3.7840    92.5260 H          1           0.4603
     13 H4          4.8777    -4.0839    93.8425 H          1           0.4604
     14 N5          3.5180    -5.9683    94.8767 N.pl3      1          -0.4872
     15 O1          4.8065    -6.4856    95.1545 O.3        1          -0.0649
     16 C6          5.2992    -7.3842    94.1585 C.3        1           0.0064
     17 C7          6.8214    -7.4884    94.2738 C.3        1          -0.1179
     18 C8          7.1927    -8.0127    95.6624 C.3        1           0.0674
     19 O2          6.6108    -9.3035    95.8554 O.3        1          -0.3138
     20 C9          7.2777   -10.1662    96.6683 C.ar       1           0.0545
     21 C10         7.1929   -11.5328    96.4472 C.ar       1          -0.1548
     22 C11         7.8701   -12.4096    97.2719 C.ar       1          -0.1651
     23 C12         8.6361   -11.9225    98.3227 C.ar       1           0.1969
     24 N6          9.3230   -12.8101    99.1586 N.pl3      1          -0.8765
     25 C13         8.7205   -10.5541    98.5433 C.ar       1          -0.1575
     26 C14         8.0468    -9.6786    97.7144 C.ar       1          -0.0903
     27 H5          1.8935    -7.4624    97.4652 H          1           0.1127
     28 H6          2.9488    -8.2249    96.2514 H          1           0.1248
     29 H7          3.6122    -7.0094    97.3695 H          1           0.0694
     30 H8          1.8032    -4.1226    95.8212 H          1           0.1111
     31 H9          1.1950    -5.0762    97.1956 H          1           0.1016
     32 H10         2.9068    -4.5922    97.1363 H          1           0.1157
     33 H11         0.6992    -7.3707    95.1935 H          1           0.4666
     34 H12         2.0776    -5.5502    92.0584 H          1           0.4812
     35 H13         4.8554    -8.3687    94.3057 H          1           0.0968
     36 H14         5.0345    -7.0106    93.1693 H          1           0.0702
     37 H15         7.1972    -8.1737    93.5141 H          1           0.0976
     38 H16         7.2650    -6.5038    94.1266 H          1           0.1031
     39 H17         8.2771    -8.0870    95.7446 H          1           0.0667
     40 H18         6.8168    -7.3274    96.4221 H          1           0.0631
     41 H19         6.5967   -11.9115    95.6301 H          1           0.1205
     42 H20         7.8036   -13.4737    97.0998 H          1           0.1250
     43 H21         9.2641   -13.7659    99.0040 H          1           0.4007
     44 H22         9.8580   -12.4695    99.8925 H          1           0.4025
     45 H23         9.3160   -10.1744    99.3604 H          1           0.1330
     46 H24         8.1160    -8.6141    97.8831 H          1           0.1329
@<TRIPOS>BOND
     1    1    2 1
     2    1   27 1
     3    1   28 1
     4    1   29 1
     5    2   14 1
     6    2    3 1
     7    2    4 1
     8    3   30 1
     9    3   31 1
    10    3   32 1
    11    4    5 1
    12    4   33 1
    13    5    6 2
    14    5    9 1
    15    6    7 1
    16    6    8 1
    17    9   10 1
    18    9   34 1
    19   10   11 2
    20   10   14 1
    21   11   12 1
    22   11   13 1
    23   14   15 1
    24   15   16 1
    25   16   17 1
    26   16   35 1
    27   16   36 1
    28   17   18 1
    29   17   37 1
    30   17   38 1
    31   18   19 1
    32   18   39 1
    33   18   40 1
    34   19   20 1
    35   20   26 ar
    36   20   21 ar
    37   21   22 ar
    38   21   41 1
    39   22   23 ar
    40   22   42 1
    41   23   24 1
    42   23   25 ar
    43   24   43 1
    44   24   44 1
    45   25   26 ar
    46   25   45 1
    47   26   46 1
##########                 Name:              T525915
##########          Protonation:                   99
##########               SMILES:   C[C@@H](Cc1ccc(cc1)CSC(C)C)[NH2+]C[C@H](c2cccc(c2)Cl)O
##########            Long Name:   y-ethyl]-[(1S)-2-[4-(isopropylsulfanylmethyl)phenyl]-1-methyl-ethyl]ammonium
##########          FlexRecCode: 1
##########               Number:                  175
##########   Ligand Source File: /raidb/db2/rgc/tcams/tcams-0000075.db2.gz
##########           GlobalRank: 486
##########                 Rank:                    1
##########               Setnum:                  343
##########             Matchnum:                 3202
##########                Cloud:                    1
##########        Electrostatic:           -44.931393
##########        Van der Waals:           -22.594831
##########  Ligand Polar Desolv:             8.080423
########## Ligand Apolar Desolv:            -4.101028
##########      Internal Energy:             0.000000
##########      Receptor Energy: 0.0
########## Receptor Desolvation:             0.000000
########## Receptor Hydrophobic:             0.000000
##########         Total Energy: -63.55
##########        Ligand Charge:             1.000000
##########            Arbitrary:    +999.9990
##########     heavy atom count:   25
##########           pose count:    1
##########        Ligand Energy:             0.000000
# num electro vdwattr vdwrepu polsolv apolsol rdesolv rhydroe totalscore fullpol fullapo
#   1    0.20   -0.19    0.01   -0.14   -0.02    0.00    0.00      -0.14   -1.16   -0.18
#   2    0.11   -0.53    0.07   -0.11   -0.03    0.00    0.00      -0.49   -0.47   -0.14
#   3    0.20   -1.05    0.60   -0.28   -0.05    0.00    0.00      -0.58   -0.95   -0.18
#   4    0.50   -1.02    0.09   -0.61   -0.19    0.00    0.00      -1.24   -2.43   -0.76
#   5    0.24   -0.38    0.03   -0.06   -0.02    0.00    0.00      -0.20   -0.32   -0.12
#   6    0.58   -0.60    0.04   -0.28   -0.07    0.00    0.00      -0.34   -1.42   -0.36
#   7    1.70   -0.77    0.03   -0.54   -0.13    0.00    0.00       0.30   -1.86   -0.45
#   8    2.38   -1.15    0.11   -0.73   -0.15    0.00    0.00       0.46   -2.16   -0.45
#   9    3.59   -1.61    0.43   -0.58   -0.12    0.00    0.00       1.71   -1.64   -0.33
#  10    4.11   -1.97    0.74   -1.30   -0.10    0.00    0.00       1.48   -2.70   -0.21
#  11   -1.13   -1.28    0.37    0.97   -0.11    0.00    0.00      -1.18    2.14   -0.24
#  12    7.50   -2.59    1.23   -3.33   -0.11    0.00    0.00       2.70   -5.68   -0.19
#  13   19.53   -1.76    1.95   -5.27    0.20    0.00    0.00      14.64  -16.33    0.62
#  14  -12.30   -0.01    0.00    1.88    0.06    0.00    0.00     -10.37   14.25    0.42
#  15  -25.56   -0.20    0.13    4.87    0.16    0.00    0.00     -20.61   16.35    0.53
#  16    1.26   -0.84    0.14   -0.27   -0.12    0.00    0.00       0.17   -0.77   -0.36
#  17   -2.22   -0.60    0.03    1.32   -0.05    0.00    0.00      -1.51    3.92   -0.14
#  18    3.54   -1.18    0.49   -4.04    0.45    0.00    0.00      -0.75  -14.79    1.64
#  19    1.57   -1.17    0.08   -0.71   -0.13    0.00    0.00      -0.36   -1.89   -0.35
#  20    1.61   -1.62    0.20   -0.86   -0.22    0.00    0.00      -0.89   -1.76   -0.44
#  21    1.58   -1.90    0.28   -1.01   -0.26    0.00    0.00      -1.31   -1.85   -0.47
#  22    1.08   -1.80    0.52   -0.78   -0.21    0.00    0.00      -1.19   -1.69   -0.46
#  23    0.23   -1.46    0.22   -0.35   -0.12    0.00    0.00      -1.48   -0.91   -0.30
#  24    0.30   -2.86    0.45   -0.48   -0.47    0.00    0.00      -3.06   -1.00   -0.99
#  25    0.61   -1.36    0.18   -0.61   -0.15    0.00    0.00      -1.33   -1.74   -0.44
#  26    3.56   -1.48    0.39   -0.76   -0.11    0.00    0.00       1.60   -2.55   -0.38
#  27    1.12   -0.78    0.13   -0.42   -0.10    0.00    0.00      -0.04   -1.95   -0.45
#  28   -0.08   -0.04    0.00    0.02   -0.01    0.00    0.00      -0.11    0.54   -0.24
#  29   -0.07   -0.04    0.00    0.02   -0.01    0.00    0.00      -0.10    0.50   -0.28
#  30   -0.09   -0.05    0.00    0.02   -0.01    0.00    0.00      -0.12    0.54   -0.28
#  31   -0.24   -0.44    0.31    0.13   -0.06    0.00    0.00      -0.29    0.57   -0.28
#  32   -0.12   -0.70    0.70    0.15   -0.10    0.00    0.00      -0.08    0.40   -0.28
#  33   -0.09   -0.18    0.03    0.07   -0.05    0.00    0.00      -0.22    0.35   -0.28
#  34   -0.08   -0.47    0.76    0.14   -0.06    0.00    0.00       0.28    0.62   -0.28
#  35   -0.17   -0.08    0.00    0.07   -0.02    0.00    0.00      -0.20    0.86   -0.24
#  36   -1.00   -0.25    0.09    0.09   -0.05    0.00    0.00      -1.11    0.55   -0.28
#  37   -3.25   -0.19    0.01    0.19   -0.06    0.00    0.00      -3.30    0.90   -0.28
#  38   -3.37   -0.35    0.07    0.83   -0.08    0.00    0.00      -2.90    2.86   -0.28
#  39   -5.82   -1.66    3.08    2.15   -0.15    0.00    0.00      -2.40    4.14   -0.28
#  40   -4.58   -0.90    0.61    1.50   -0.14    0.00    0.00      -3.52    2.90   -0.28
#  41   -4.03   -0.25    0.02    1.08   -0.06    0.00    0.00      -3.25    4.67   -0.28
#  42   -3.58   -0.62    0.28    1.00   -0.15    0.00    0.00      -3.07    1.93   -0.28
#  43   -4.49   -1.58    3.68    1.91   -0.13    0.00    0.00      -0.61    3.18   -0.21
#  44   -3.05   -1.57    2.42    1.85   -0.17    0.00    0.00      -0.52    3.12   -0.28
#  45   -3.16   -0.25    0.05    1.27   -0.04    0.00    0.00      -2.14    6.28   -0.22
#  46   -4.44   -0.40    0.11    1.88   -0.11    0.00    0.00      -2.96    4.95   -0.28
#  47   -2.53   -0.22    0.02    0.78   -0.06    0.00    0.00      -2.01    3.76   -0.28
#  48   -3.84   -0.01    0.00    1.57    0.13    0.00    0.00      -2.15   12.13    1.01
#  49   -2.10   -0.54    0.45    2.02   -0.09    0.00    0.00      -0.26    5.28   -0.24
#  50   -3.06   -0.49    0.08    1.24   -0.15    0.00    0.00      -2.39    2.27   -0.28
#  51   -1.69   -0.35    0.07    0.26   -0.10    0.00    0.00      -1.80    0.75   -0.28
#  52   -0.31   -0.33    0.10    0.60   -0.06    0.00    0.00       0.00    2.59   -0.28
#  53   -4.54   -0.45    0.18    1.55   -0.08    0.00    0.00      -3.34    5.45   -0.28
#  54   -1.04   -0.10    0.01    0.18   -0.03    0.00    0.00      -0.97    1.86   -0.28

@<TRIPOS>MOLECULE
          T525915        99
   54    55     0     0     0



@<TRIPOS>ATOM
      1 C1         -1.0615    -9.7469    89.8762 C.3        1          -0.1509
      2 C2         -1.3799    -9.4766    91.3482 C.3        1          -0.0582
      3 C3         -1.6479   -10.8021    92.0636 C.3        1          -0.1359
      4 S1          0.0293    -8.6425    92.1284 S.3        1          -0.2523
      5 C4         -0.1518    -6.9096    91.6235 C.3        1          -0.0590
      6 C5          0.9710    -6.0949    92.2121 C.ar       1          -0.0511
      7 C6          0.8232    -5.5121    93.4569 C.ar       1          -0.0890
      8 C7          1.8531    -4.7648    93.9968 C.ar       1          -0.1019
      9 C8          3.0310    -4.6005    93.2922 C.ar       1          -0.1249
     10 C9          4.1537    -3.7853    93.8806 C.3        1          -0.0988
     11 C10         5.0698    -4.6961    94.7005 C.3        1           0.0297
     12 C11         6.2094    -3.8683    95.2981 C.3        1          -0.1838
     13 N1          5.6270    -5.7409    93.8312 N.4        1          -0.5058
     14 H1          4.8754    -6.2867    93.4372 H          1           0.4272
     15 H2          6.1571    -5.3122    93.0874 H          1           0.4286
     16 C12         6.5067    -6.6153    94.6186 C.3        1          -0.0467
     17 C13         5.7026    -7.2653    95.7464 C.3        1           0.1366
     18 O1          4.6382    -8.0382    95.1882 O.3        1          -0.5440
     19 C14         6.6050    -8.1624    96.5540 C.ar       1          -0.1286
     20 C15         7.2870    -7.6557    97.6447 C.ar       1          -0.1046
     21 C16         8.1144    -8.4779    98.3861 C.ar       1          -0.0964
     22 C17         8.2609    -9.8074    98.0371 C.ar       1          -0.0915
     23 C18         7.5787   -10.3150    96.9459 C.ar       1          -0.0308
     24 Cl1         7.7617   -11.9848    96.5074 Cl         1          -0.0477
     25 C19         6.7461    -9.4927    96.2075 C.ar       1          -0.0935
     26 C20         3.1794    -5.1845    92.0480 C.ar       1          -0.1395
     27 C21         2.1509    -5.9350    91.5097 C.ar       1          -0.0902
     28 H3         -0.8704    -8.8025    89.3665 H          1           0.0548
     29 H4         -0.1790   -10.3826    89.8062 H          1           0.0693
     30 H5         -1.9083   -10.2480    89.4074 H          1           0.0703
     31 H6         -2.2626    -8.8409    91.4181 H          1           0.0895
     32 H7         -1.8749   -10.6098    93.1123 H          1           0.0657
     33 H8         -2.4950   -11.3032    91.5948 H          1           0.0661
     34 H9         -0.7655   -11.4379    91.9934 H          1           0.0768
     35 H10        -0.1181    -6.8425    90.5360 H          1           0.0954
     36 H11        -1.1066    -6.5247    91.9818 H          1           0.0947
     37 H12        -0.0971    -5.6404    94.0074 H          1           0.1337
     38 H13         1.7374    -4.3088    94.9690 H          1           0.1320
     39 H14         4.7263    -3.3224    93.0770 H          1           0.0989
     40 H15         3.7404    -3.0101    94.5256 H          1           0.1221
     41 H16         4.4971    -5.1591    95.5041 H          1           0.1410
     42 H17         6.8622    -4.5170    95.8822 H          1           0.1088
     43 H18         6.7821    -3.4050    94.4946 H          1           0.0821
     44 H19         5.7959    -3.0931    95.9432 H          1           0.0844
     45 H20         6.9200    -7.3906    93.9735 H          1           0.1405
     46 H21         7.3185    -6.0257    95.0442 H          1           0.1448
     47 H22         5.2892    -6.4900    96.3914 H          1           0.1322
     48 H23         4.0168    -7.5242    94.6544 H          1           0.3885
     49 H24         7.1734    -6.6168    97.9173 H          1           0.1293
     50 H25         8.6469    -8.0814    99.2380 H          1           0.1422
     51 H26         8.9079   -10.4497    98.6161 H          1           0.1431
     52 H27         6.2102    -9.8894    95.3579 H          1           0.1389
     53 H28         4.0997    -5.0565    91.4978 H          1           0.1246
     54 H29         2.2680    -6.3940    90.5392 H          1           0.1333
@<TRIPOS>BOND
     1    1    2 1
     2    1   28 1
     3    1   29 1
     4    1   30 1
     5    2    3 1
     6    2    4 1
     7    2   31 1
     8    3   32 1
     9    3   33 1
    10    3   34 1
    11    4    5 1
    12    5    6 1
    13    5   35 1
    14    5   36 1
    15    6   27 ar
    16    6    7 ar
    17    7    8 ar
    18    7   37 1
    19    8    9 ar
    20    8   38 1
    21    9   10 1
    22    9   26 ar
    23   10   11 1
    24   10   39 1
    25   10   40 1
    26   11   12 1
    27   11   13 1
    28   11   41 1
    29   12   42 1
    30   12   43 1
    31   12   44 1
    32   13   14 1
    33   13   15 1
    34   13   16 1
    35   16   17 1
    36   16   45 1
    37   16   46 1
    38   17   18 1
    39   17   19 1
    40   17   47 1
    41   18   48 1
    42   19   25 ar
    43   19   20 ar
    44   20   21 ar
    45   20   49 1
    46   21   22 ar
    47   21   50 1
    48   22   23 ar
    49   22   51 1
    50   23   24 1
    51   23   25 ar
    52   25   52 1
    53   26   27 ar
    54   26   53 1
    55   27   54 1
##########                 Name:              T534284
##########          Protonation:                   94
##########               SMILES:   c1cc(ccc1C(F)(F)F)NC(=O)N2CCC[NH+](CC2)CCCCCNC(=O)/C=C/c3ccc(c(c3)Cl)Cl
##########            Long Name:   amino]pentyl]-N-[4-(trifluoromethyl)phenyl]-1,4-diazepan-4-ium-1-carboxamide
##########          FlexRecCode: 1
##########               Number:                  163
##########   Ligand Source File: /raidb/db2/rgc/tcams/tcams-0001273.db2.gz
##########           GlobalRank: 486
##########                 Rank:                    1
##########               Setnum:                  195
##########             Matchnum:                  319
##########                Cloud:                    1
##########        Electrostatic:           -42.359470
##########        Van der Waals:           -26.283480
##########  Ligand Polar Desolv:             8.643549
########## Ligand Apolar Desolv:            -3.550335
##########      Internal Energy:             0.000000
##########      Receptor Energy: 0.0
########## Receptor Desolvation:             0.000000
########## Receptor Hydrophobic:             0.000000
##########         Total Energy: -63.55
##########        Ligand Charge:             1.000000
##########            Arbitrary:    +999.9990
##########     heavy atom count:   38
##########           pose count:    1
##########        Ligand Energy:             0.000000
# num electro vdwattr vdwrepu polsolv apolsol rdesolv rhydroe totalscore fullpol fullapo
#   1    2.11   -1.38    0.33   -0.22   -0.27    0.00    0.00       0.57   -0.40   -0.48
#   2   -3.83   -1.36    0.19    0.98   -0.04    0.00    0.00      -4.05    1.66   -0.07
#   3    1.41   -2.50    2.14   -0.32   -0.29    0.00    0.00       0.45   -0.49   -0.45
#   4    1.05   -1.69    0.54   -0.35   -0.27    0.00    0.00      -0.72   -0.59   -0.45
#   5    1.36   -1.55    0.24   -0.72   -0.19    0.00    0.00      -0.86   -1.45   -0.38
#   6    0.48   -1.88    0.69   -0.29   -0.21    0.00    0.00      -1.21   -0.60   -0.44
#   7    1.82   -1.64    0.28   -0.83   -0.23    0.00    0.00      -0.59   -1.68   -0.46
#   8   -1.81   -1.28    0.12    0.94   -0.25    0.00    0.00      -2.28    2.54   -0.68
#   9    9.90   -1.10    0.06   -4.30    0.63    0.00    0.00       5.21  -11.31    1.67
#  10   -8.97   -1.01    0.10    3.75   -0.66    0.00    0.00      -6.78   11.50   -2.02
#  11    1.04   -2.43    2.39   -2.46    0.11    0.00    0.00      -1.34   -7.16    0.32
#  12   14.06   -0.80    0.03   -4.01    0.41    0.00    0.00       9.69  -14.09    1.44
#  13   -2.09   -0.51    0.02    0.61   -0.14    0.00    0.00      -2.10    2.07   -0.46
#  14    3.83   -0.51    0.03   -1.17   -0.06    0.00    0.00       2.12   -4.50   -0.24
#  15    0.23   -0.37    0.02   -0.07   -0.07    0.00    0.00      -0.26   -0.35   -0.36
#  16   12.24   -1.31    0.86   -2.86    0.04    0.00    0.00       8.99  -11.54    0.18
#  17  -21.01   -0.08    0.01    4.85    0.13    0.00    0.00     -16.10   17.18    0.45
#  18    0.48   -0.50    0.08   -0.02   -0.07    0.00    0.00      -0.02   -0.09   -0.34
#  19    2.92   -0.67    0.10   -1.08   -0.05    0.00    0.00       1.21   -4.17   -0.20
#  20    0.79   -0.34    0.02   -0.54   -0.04    0.00    0.00      -0.11   -3.03   -0.22
#  21    1.78   -0.35    0.02   -0.46   -0.04    0.00    0.00       0.94   -2.43   -0.22
#  22   -0.74   -0.39    0.05    0.24   -0.07    0.00    0.00      -0.90    1.43   -0.43
#  23    8.31   -1.11    0.45   -2.00    0.49    0.00    0.00       6.13   -9.55    2.33
#  24   -2.86   -0.51    0.09    0.65   -0.10    0.00    0.00      -2.72    4.43   -0.65
#  25    2.14   -0.18    0.01   -0.13    0.04    0.00    0.00       1.87   -1.40    0.39
#  26    0.53   -0.49    0.04   -0.36   -0.08    0.00    0.00      -0.37   -1.95   -0.43
#  27    0.01   -0.22    0.00   -0.04   -0.04    0.00    0.00      -0.29   -0.44   -0.44
#  28    0.09   -0.23    0.01   -0.04   -0.04    0.00    0.00      -0.21   -0.42   -0.41
#  29    0.07   -0.12    0.00   -0.04   -0.02    0.00    0.00      -0.11   -0.74   -0.44
#  30    0.05   -0.12    0.00   -0.04   -0.02    0.00    0.00      -0.13   -0.86   -0.46
#  31    0.01   -0.20    0.00   -0.03   -0.02    0.00    0.00      -0.23   -0.31   -0.30
#  32    0.01   -0.26    0.00   -0.01   -0.05    0.00    0.00      -0.31   -0.27   -0.95
#  33    0.04   -0.50    0.06   -0.04   -0.05    0.00    0.00      -0.49   -0.27   -0.30
#  34    0.05   -2.07    0.58   -0.06   -0.27    0.00    0.00      -1.75   -0.20   -0.95
#  35    0.13   -0.58    0.09   -0.09   -0.07    0.00    0.00      -0.53   -0.57   -0.45
#  36    1.60   -1.20    0.91   -0.10   -0.11    0.00    0.00       1.10   -0.37   -0.39
#  37   -4.09   -1.19    0.67    0.86   -0.15    0.00    0.00      -3.90    2.36   -0.42
#  38    0.54   -1.49    0.27   -0.44   -0.14    0.00    0.00      -1.26   -1.27   -0.40
#  39    0.21   -1.55    0.22   -0.22   -0.17    0.00    0.00      -1.52   -0.55   -0.44
#  40   -1.81   -0.41    0.10    0.57   -0.11    0.00    0.00      -1.64    1.45   -0.27
#  41   -2.37   -0.33    0.03    1.41   -0.12    0.00    0.00      -1.38    3.24   -0.28
#  42   -7.64   -0.02    0.00    2.55    0.11    0.00    0.00      -5.00    9.47    0.41
#  43   -1.41   -0.14    0.01    0.33   -0.03    0.00    0.00      -1.25    2.43   -0.20
#  44   -2.50   -0.22    0.01    0.44   -0.06    0.00    0.00      -2.33    2.14   -0.28
#  45   -2.50   -0.12    0.00    0.49   -0.03    0.00    0.00      -2.15    4.51   -0.28
#  46   -3.27   -0.30    0.05    1.25   -0.06    0.00    0.00      -2.33    4.87   -0.25
#  47   -1.49   -0.10    0.01    0.28   -0.02    0.00    0.00      -1.33    3.02   -0.24
#  48   -1.97   -0.07    0.00    0.44   -0.01    0.00    0.00      -1.61    6.21   -0.21
#  49   -3.57   -0.17    0.02    0.76   -0.04    0.00    0.00      -2.99    4.97   -0.27
#  50   -1.81   -0.05    0.00    0.21   -0.01    0.00    0.00      -1.66    4.01   -0.27
#  51   -1.14   -0.14    0.01    0.65   -0.04    0.00    0.00      -0.66    3.86   -0.21
#  52   -3.24   -0.63    0.40    1.29   -0.09    0.00    0.00      -2.27    3.96   -0.28
#  53   -0.43   -0.04    0.00    0.06   -0.01    0.00    0.00      -0.43    1.40   -0.28
#  54   -0.26   -0.15    0.02    0.18   -0.04    0.00    0.00      -0.25    1.33   -0.28
#  55   -1.59   -0.21    0.03    0.42   -0.05    0.00    0.00      -1.40    2.24   -0.28
#  56   -1.20   -0.07    0.00    0.14   -0.02    0.00    0.00      -1.14    2.20   -0.28
#  57   -0.25   -0.06    0.00    0.02   -0.02    0.00    0.00      -0.30    0.31   -0.28
#  58   -0.27   -0.17    0.03    0.04   -0.04    0.00    0.00      -0.41    0.31   -0.28
#  59   -7.31   -0.03    0.00    1.76    0.12    0.00    0.00      -5.46    8.08    0.56
#  60   -0.54   -0.17    0.02    0.73   -0.04    0.00    0.00      -0.01    3.51   -0.21
#  61   -0.21   -0.02    0.00    0.01   -0.01    0.00    0.00      -0.22    0.52   -0.26
#  62   -0.10   -0.01    0.00    0.07    0.00    0.00    0.00      -0.04    3.59   -0.21
#  63   -0.05   -0.01    0.00    0.04   -0.01    0.00    0.00      -0.02    2.17   -0.28
#  64   -0.37   -0.21    0.05    0.16   -0.05    0.00    0.00      -0.42    0.88   -0.28
#  65   -2.69   -0.13    0.01    0.36   -0.04    0.00    0.00      -2.49    2.60   -0.28
#  66   -6.16   -0.74    1.08    1.84   -0.08    0.00    0.00      -4.06    6.07   -0.26
#  67   -5.09   -0.88    2.14    1.67   -0.09    0.00    0.00      -2.25    5.03   -0.28
#  68   -4.30   -0.35    0.08    0.37   -0.08    0.00    0.00      -4.29    1.09   -0.24
#  69   -0.23   -0.36    0.15    0.30   -0.05    0.00    0.00      -0.20    1.34   -0.22
#  70   -0.52   -0.37    0.08    0.25   -0.08    0.00    0.00      -0.64    0.83   -0.27

@<TRIPOS>MOLECULE
          T534284        94
   70    72     0     0     0



@<TRIPOS>ATOM
      1 F1          8.2299   -13.7070    96.6539 F          1          -0.1736
      2 C1          8.6700   -12.7790    97.6039 C.3        1           0.5081
      3 F2          8.2469   -13.1781    98.8762 F          1          -0.1752
      4 F3         10.0671   -12.7110    97.5770 F          1          -0.1748
      5 C2          8.0947   -11.4230    97.2855 C.ar       1          -0.1902
      6 C3          8.3975   -10.3392    98.0891 C.ar       1          -0.0456
      7 C4          7.8722    -9.0951    97.7998 C.ar       1          -0.1434
      8 C5          7.0393    -8.9332    96.7005 C.ar       1           0.1803
      9 N1          6.5058    -7.6738    96.4044 N.am       1          -0.6796
     10 C6          5.3076    -7.5757    95.7951 C.2        1           0.7022
     11 O1          4.4625    -8.4313    95.9746 O.2        1          -0.5481
     12 N2          5.0461    -6.5293    94.9870 N.am       1          -0.6360
     13 C7          3.6543    -6.0481    94.8732 C.3        1           0.0945
     14 C8          3.3055    -5.7028    93.4140 C.3        1          -0.1567
     15 C9          3.9169    -6.7350    92.4925 C.3        1          -0.0117
     16 N3          5.2235    -6.2636    92.0393 N.4        1          -0.3662
     17 H1          5.1876    -5.2588    91.9543 H          1           0.4173
     18 C10         5.4853    -6.8302    90.7095 C.3        1          -0.0204
     19 C11         4.7385    -6.0150    89.6518 C.3        1          -0.1465
     20 C12         5.0110    -6.6052    88.2668 C.3        1          -0.1156
     21 C13         6.5131    -6.5593    87.9795 C.3        1          -0.1322
     22 C14         6.7856    -7.1494    86.5944 C.3        1           0.1173
     23 N4          8.2239    -7.1055    86.3194 N.am       1          -0.7315
     24 C15         9.0088    -8.1441    86.6683 C.2        1           0.5492
     25 O2          8.5227    -9.1184    87.2119 O.2        1          -0.5372
     26 C16        10.4460    -8.1002    86.3934 C.2        1          -0.2148
     27 C17        11.2312    -9.1394    86.7425 C.2        1          -0.0082
     28 C18        12.6760    -9.0952    86.4663 C.ar       1          -0.0650
     29 C19        13.4205   -10.2788    86.4275 C.ar       1          -0.0858
     30 C20        14.7732   -10.2305    86.1678 C.ar       1          -0.0994
     31 C21        15.3965    -9.0133    85.9451 C.ar       1          -0.0207
     32 Cl1        17.1007    -8.9623    85.6181 Cl         1          -0.0366
     33 C22        14.6655    -7.8359    85.9819 C.ar       1          -0.0337
     34 Cl2        15.4562    -6.3162    85.7009 Cl         1          -0.0359
     35 C23        13.3097    -7.8701    86.2356 C.ar       1          -0.0729
     36 C24         6.3041    -6.6008    92.8844 C.3        1          -0.0468
     37 C25         6.1408    -5.9131    94.2660 C.3        1           0.1145
     38 C26         6.7372   -10.0236    95.8954 C.ar       1          -0.1222
     39 C27         7.2699   -11.2641    96.1871 C.ar       1          -0.0480
     40 H2          9.0450   -10.4658    98.9441 H          1           0.1454
     41 H3          8.1087    -8.2490    98.4280 H          1           0.1395
     42 H4          6.9983    -6.8713    96.6376 H          1           0.4099
     43 H5          2.9772    -6.8248    95.2286 H          1           0.0925
     44 H6          3.5319    -5.1582    95.4905 H          1           0.0949
     45 H7          2.2228    -5.7008    93.2898 H          1           0.1281
     46 H8          3.7016    -4.7172    93.1691 H          1           0.0947
     47 H9          4.0356    -7.6766    93.0285 H          1           0.1285
     48 H10         3.2657    -6.8853    91.6314 H          1           0.1393
     49 H11         6.5553    -6.7976    90.5049 H          1           0.1349
     50 H12         5.1413    -7.8642    90.6811 H          1           0.1315
     51 H13         3.6683    -6.0478    89.8567 H          1           0.0874
     52 H14         5.0823    -4.9810    89.6804 H          1           0.0894
     53 H15         4.6672    -7.6391    88.2386 H          1           0.0801
     54 H16         4.4790    -6.0245    87.5134 H          1           0.0790
     55 H17         6.8570    -5.5254    88.0080 H          1           0.0742
     56 H18         7.0452    -7.1400    88.7329 H          1           0.0750
     57 H19         6.4417    -8.1833    86.5660 H          1           0.0706
     58 H20         6.2536    -6.5687    85.8409 H          1           0.0702
     59 H21         8.6114    -6.3290    85.8860 H          1           0.4023
     60 H22        10.8773    -7.2355    85.9112 H          1           0.1323
     61 H23        10.7999   -10.0041    87.2249 H          1           0.1427
     62 H24        12.9365   -11.2284    86.6012 H          1           0.1428
     63 H25        15.3489   -11.1438    86.1380 H          1           0.1486
     64 H26        12.7401    -6.9528    86.2596 H          1           0.1504
     65 H27         6.3330    -7.6820    93.0196 H          1           0.1314
     66 H28         7.2369    -6.2715    92.4268 H          1           0.1469
     67 H29         5.9288    -4.8538    94.1215 H          1           0.1029
     68 H30         7.0602    -6.0224    94.8409 H          1           0.1342
     69 H31         6.0897    -9.9009    95.0398 H          1           0.1486
     70 H32         7.0389   -12.1116    95.5588 H          1           0.1430
@<TRIPOS>BOND
     1    1    2 1
     2    2    3 1
     3    2    4 1
     4    2    5 1
     5    5   39 ar
     6    5    6 ar
     7    6    7 ar
     8    6   40 1
     9    7    8 ar
    10    7   41 1
    11    8    9 1
    12    8   38 ar
    13    9   10 am
    14    9   42 1
    15   10   11 2
    16   10   12 am
    17   12   37 1
    18   12   13 1
    19   13   14 1
    20   13   43 1
    21   13   44 1
    22   14   15 1
    23   14   45 1
    24   14   46 1
    25   15   16 1
    26   15   47 1
    27   15   48 1
    28   16   17 1
    29   16   18 1
    30   16   36 1
    31   18   19 1
    32   18   49 1
    33   18   50 1
    34   19   20 1
    35   19   51 1
    36   19   52 1
    37   20   21 1
    38   20   53 1
    39   20   54 1
    40   21   22 1
    41   21   55 1
    42   21   56 1
    43   22   23 1
    44   22   57 1
    45   22   58 1
    46   23   24 am
    47   23   59 1
    48   24   25 2
    49   24   26 1
    50   26   27 2
    51   26   60 1
    52   27   28 1
    53   27   61 1
    54   28   35 ar
    55   28   29 ar
    56   29   30 ar
    57   29   62 1
    58   30   31 ar
    59   30   63 1
    60   31   32 1
    61   31   33 ar
    62   33   34 1
    63   33   35 ar
    64   35   64 1
    65   36   37 1
    66   36   65 1
    67   36   66 1
    68   37   67 1
    69   37   68 1
    70   38   39 ar
    71   38   69 1
    72   39   70 1
##########                 Name:              T531197
##########          Protonation:                   20
##########               SMILES:   COc1cc2c(nccc2[C@@H](O)C[NH+]3CC[C@@H](CC3)[NH2+]Cc4[nH]c5c(c4F)cccc5)cc1
##########            Long Name:   -[(2R)-2-hydroxy-2-(6-methoxy-4-quinolyl)ethyl]piperidin-1-ium-4-yl]ammonium
##########          FlexRecCode: 1
##########               Number:                  297
##########   Ligand Source File: /raidb/db2/rgc/tcams/tcams-0000803.db2.gz
##########           GlobalRank: 488
##########                 Rank:                    1
##########               Setnum:                   38
##########             Matchnum:                 1650
##########                Cloud:                    1
##########        Electrostatic:           -36.550491
##########        Van der Waals:           -30.513865
##########  Ligand Polar Desolv:             6.551959
########## Ligand Apolar Desolv:            -3.030871
##########      Internal Energy:             0.000000
##########      Receptor Energy: 0.0
########## Receptor Desolvation:             0.000000
########## Receptor Hydrophobic:             0.000000
##########         Total Energy: -63.54
##########        Ligand Charge:             2.000000
##########            Arbitrary:    +999.9990
##########     heavy atom count:   33
##########           pose count:    1
##########        Ligand Energy:             0.000000
# num electro vdwattr vdwrepu polsolv apolsol rdesolv rhydroe totalscore fullpol fullapo
#   1   -0.02   -0.48    0.03    0.06    0.01    0.00    0.00      -0.41    0.24    0.03
#   2    0.55   -0.45    0.02   -1.37    0.19    0.00    0.00      -1.06   -6.59    0.93
#   3   -0.40   -1.07    0.21    0.52   -0.09    0.00    0.00      -0.83    1.75   -0.31
#   4    0.43   -1.73    0.29   -1.27   -0.19    0.00    0.00      -2.48   -2.93   -0.43
#   5    0.09   -2.78    1.10   -0.98   -0.23    0.00    0.00      -2.80   -1.92   -0.46
#   6   -0.37   -2.28    0.76    0.15   -0.35    0.00    0.00      -2.09    0.31   -0.73
#   7    2.00   -2.95    1.54   -4.28    1.08    0.00    0.00      -2.61   -7.94    2.00
#   8   -0.77   -3.22    1.57    0.80   -0.51    0.00    0.00      -2.13    1.52   -0.97
#   9    1.81   -2.85    1.75   -1.80   -0.20    0.00    0.00      -1.29   -4.04   -0.44
#  10    0.49   -1.43    0.30   -0.33   -0.11    0.00    0.00      -1.08   -1.04   -0.35
#  11   -1.27   -0.46    0.03    1.29   -0.02    0.00    0.00      -0.43    5.61   -0.10
#  12   11.36   -0.65    0.03   -6.58    0.47    0.00    0.00       4.63  -21.89    1.58
#  13    0.46   -0.39    0.03   -0.19   -0.06    0.00    0.00      -0.17   -0.99   -0.32
#  14    6.93   -0.42    0.03   -3.21    0.05    0.00    0.00       3.38  -18.28    0.27
#  15  -10.12   -0.01    0.00    3.53    0.07    0.00    0.00      -6.52   24.13    0.49
#  16    0.11   -0.13    0.00   -0.11   -0.03    0.00    0.00      -0.15   -1.49   -0.37
#  17    1.82   -0.18    0.01   -0.98   -0.03    0.00    0.00       0.63   -8.65   -0.24
#  18   -0.17   -0.27    0.01    0.36   -0.04    0.00    0.00      -0.11    2.08   -0.23
#  19    4.58   -0.63    0.15   -2.19   -0.05    0.00    0.00       1.86   -9.73   -0.20
#  20    0.06   -0.56    0.09   -0.08   -0.08    0.00    0.00      -0.56   -0.35   -0.38
#  21    5.96   -0.71    0.16   -5.77    0.14    0.00    0.00      -0.22  -26.12    0.63
#  22   -3.75   -0.01    0.00    2.71    0.07    0.00    0.00      -0.98   23.13    0.56
#  23   -7.06   -0.03    0.00    5.40    0.12    0.00    0.00      -1.58   25.15    0.56
#  24   -0.50   -0.65    0.11    1.03   -0.11    0.00    0.00      -0.12    4.22   -0.43
#  25    0.34   -1.18    0.18    1.29   -0.21    0.00    0.00       0.42    4.28   -0.71
#  26   -0.32   -1.44    0.24   -0.50   -0.13    0.00    0.00      -2.15   -1.46   -0.38
#  27    0.14   -1.33    0.46   -1.29   -0.18    0.00    0.00      -2.19   -3.52   -0.48
#  28    0.99   -1.32    0.14   -1.62   -0.18    0.00    0.00      -1.99   -3.97   -0.44
#  29    0.39   -1.72    0.28   -1.13   -0.26    0.00    0.00      -2.44   -2.05   -0.47
#  30    1.07   -2.37    0.88   -1.55   -0.27    0.00    0.00      -2.24   -2.73   -0.47
#  31    0.76   -2.47    1.01   -1.39   -0.26    0.00    0.00      -2.35   -2.52   -0.47
#  32    2.04   -1.77    0.27   -1.32   -0.25    0.00    0.00      -1.03   -2.56   -0.48
#  33   -1.54   -1.38    0.17    0.93   -0.31    0.00    0.00      -2.13    2.34   -0.78
#  34    6.78   -1.35    0.22   -6.11    0.38    0.00    0.00      -0.08  -17.88    1.12
#  35    0.17   -1.80    0.79   -0.59   -0.14    0.00    0.00      -1.58   -1.72   -0.40
#  36    0.57   -1.32    0.63   -0.60   -0.10    0.00    0.00      -0.82   -2.58   -0.43
#  37   -0.10   -0.09    0.00    0.24   -0.02    0.00    0.00       0.03    2.85   -0.28
#  38   -0.08   -0.13    0.01    0.17   -0.04    0.00    0.00      -0.08    1.17   -0.27
#  39   -0.09   -0.31    0.05    0.20   -0.07    0.00    0.00      -0.23    0.73   -0.26
#  40   -0.30   -0.40    0.07    0.74   -0.08    0.00    0.00       0.03    1.96   -0.22
#  41   -0.42   -1.57    3.47    0.32   -0.16    0.00    0.00       1.65    0.56   -0.28
#  42   -2.66   -1.19    2.36    1.47   -0.14    0.00    0.00      -0.16    2.93   -0.28
#  43   -4.84   -0.91    1.07    2.91   -0.09    0.00    0.00      -1.85    7.48   -0.22
#  44   -0.85   -0.12    0.02    0.72   -0.02    0.00    0.00      -0.26    6.62   -0.17
#  45  -11.64   -0.02    0.00    4.56    0.26    0.00    0.00      -6.83   17.24    1.00
#  46   -1.17   -0.29    0.09    1.76   -0.06    0.00    0.00       0.32    8.28   -0.28
#  47   -0.67   -0.06    0.00    0.41   -0.02    0.00    0.00      -0.33    7.51   -0.28
#  48   -0.95   -0.02    0.00    0.27   -0.01    0.00    0.00      -0.71    8.84   -0.28
#  49   -1.16   -0.03    0.00    0.20   -0.01    0.00    0.00      -1.00    5.96   -0.22
#  50   -0.94   -0.03    0.00    0.21   -0.01    0.00    0.00      -0.77    6.36   -0.28
#  51   -1.50   -0.08    0.00    0.59   -0.02    0.00    0.00      -1.02    7.22   -0.28
#  52   -1.23   -0.07    0.00    0.70   -0.02    0.00    0.00      -0.61   11.00   -0.28
#  53   -3.84   -0.17    0.03    1.18   -0.03    0.00    0.00      -2.83    8.58   -0.22
#  54   -4.04   -0.41    0.23    2.10   -0.07    0.00    0.00      -2.18    8.35   -0.28
#  55   -5.67   -0.48    0.25    2.09   -0.07    0.00    0.00      -3.88    8.03   -0.28
#  56   -2.17   -0.07    0.00    0.58   -0.02    0.00    0.00      -1.68    8.50   -0.28
#  57   -1.74   -0.14    0.01    1.43   -0.02    0.00    0.00      -0.46   12.43   -0.21
#  58    0.15   -0.46    0.31    1.95   -0.06    0.00    0.00       1.90    9.67   -0.28
#  59   -1.07   -0.35    0.03    0.70   -0.13    0.00    0.00      -0.82    1.51   -0.28
#  60   -0.75   -0.60    0.17    0.67   -0.16    0.00    0.00      -0.68    1.14   -0.28
#  61   -2.57   -0.86    0.94    0.98   -0.15    0.00    0.00      -1.66    1.81   -0.28
#  62   -2.55   -0.41    0.06    1.72   -0.13    0.00    0.00      -1.31    3.69   -0.28
#  63   -6.94   -0.02    0.00    3.91    0.13    0.00    0.00      -2.92   17.90    0.59
#  64   -0.35   -0.13    0.03    0.97   -0.02    0.00    0.00       0.49    8.87   -0.22

@<TRIPOS>MOLECULE
          T531197        20
   64    68     0     0     0



@<TRIPOS>ATOM
      1 C1          3.6074    -9.2482    82.1013 C.3        1           0.0187
      2 O1          4.3452    -8.8851    83.2701 O.3        1          -0.3157
      3 C2          4.6540    -7.5703    83.4210 C.ar       1           0.1645
      4 C3          4.2428    -6.6481    82.4535 C.ar       1          -0.1770
      5 C4          4.5364    -5.3262    82.5763 C.ar       1          -0.0291
      6 C5          5.2645    -4.8719    83.6906 C.ar       1           0.0983
      7 N1          5.5658    -3.5776    83.8355 N.ar       1          -0.4350
      8 C6          6.2437    -3.1472    84.8715 C.ar       1           0.1191
      9 C7          6.6833    -4.0126    85.8711 C.ar       1          -0.1276
     10 C8          6.4096    -5.3478    85.7853 C.ar       1          -0.1068
     11 C9          6.8739    -6.3038    86.8538 C.3        1           0.1375
     12 O2          8.0840    -5.8159    87.4363 O.3        1          -0.5443
     13 C10         5.7982    -6.4210    87.9355 C.3        1          -0.0467
     14 N2          6.4007    -6.9390    89.1711 N.4        1          -0.3844
     15 H1          7.3075    -6.5171    89.3044 H          1           0.4309
     16 C11         6.5509    -8.3954    89.0672 C.3        1          -0.0113
     17 C12         7.2520    -8.9302    90.3179 C.3        1          -0.1684
     18 C13         6.4124    -8.5887    91.5523 C.3        1           0.0129
     19 C14         6.1996    -7.0732    91.6095 C.3        1          -0.1719
     20 C15         5.5368    -6.6088    90.3108 C.3        1          -0.0026
     21 N3          7.1166    -9.0319    92.7631 N.4        1          -0.5083
     22 H2          7.5484    -9.9276    92.5921 H          1           0.4409
     23 H3          7.8263    -8.3569    93.0056 H          1           0.4313
     24 C16         6.1582    -9.1537    93.8698 C.3        1           0.0711
     25 C17         6.8805    -9.6084    95.1119 C.2        1          -0.0506
     26 C18         7.0699   -10.8892    95.4692 C.2        1           0.0828
     27 F1          6.6552   -11.9821    94.7920 F          1          -0.1092
     28 C19         7.8122   -10.8763    96.7328 C.ar       1          -0.1443
     29 C20         8.2960   -11.8723    97.5836 C.ar       1          -0.0536
     30 C21         8.9692   -11.5251    98.7205 C.ar       1          -0.1275
     31 C22         9.1761   -10.1894    99.0377 C.ar       1          -0.0547
     32 C23         8.7073    -9.1907    98.2130 C.ar       1          -0.1371
     33 C24         8.0197    -9.5213    97.0494 C.ar       1           0.1421
     34 N4          7.4475    -8.7760    96.0432 N.pl3      1          -0.5749
     35 C25         5.6813    -5.8064    84.6710 C.ar       1          -0.0433
     36 C26         5.3579    -7.1638    84.5188 C.ar       1          -0.1881
     37 H4          3.4280   -10.3233    82.1043 H          1           0.1107
     38 H5          2.6536    -8.7207    82.0952 H          1           0.0646
     39 H6          4.1780    -8.9775    81.2128 H          1           0.0660
     40 H7          3.6838    -6.9912    81.5955 H          1           0.1479
     41 H8          4.2117    -4.6269    81.8199 H          1           0.1522
     42 H9          6.4676    -2.0938    84.9524 H          1           0.1712
     43 H10         7.2402    -3.6279    86.7127 H          1           0.1413
     44 H11         7.0528    -7.2839    86.4117 H          1           0.1363
     45 H12         7.9987    -4.9456    87.8494 H          1           0.3924
     46 H13         5.3660    -5.4387    88.1261 H          1           0.1468
     47 H14         5.0171    -7.1026    87.5988 H          1           0.1506
     48 H15         5.5671    -8.8563    88.9777 H          1           0.1462
     49 H16         7.1459    -8.6371    88.1865 H          1           0.1534
     50 H17         7.3609   -10.0119    90.2396 H          1           0.1411
     51 H18         8.2360    -8.4702    90.4084 H          1           0.1153
     52 H19         5.4469    -9.0901    91.4866 H          1           0.1617
     53 H20         5.5564    -6.8277    92.4545 H          1           0.1373
     54 H21         7.1618    -6.5747    91.7267 H          1           0.1147
     55 H22         5.3823    -5.5306    90.3488 H          1           0.1527
     56 H23         4.5752    -7.1088    90.1940 H          1           0.1447
     57 H24         5.6915    -8.1861    94.0546 H          1           0.1458
     58 H25         5.3915    -9.8828    93.6079 H          1           0.1590
     59 H26         8.1382   -12.9135    97.3438 H          1           0.1358
     60 H27         9.3432   -12.2960    99.3782 H          1           0.1414
     61 H28         9.7099    -9.9307    99.9402 H          1           0.1442
     62 H29         8.8727    -8.1545    98.4688 H          1           0.1363
     63 H30         7.4440    -7.8069    96.0004 H          1           0.4276
     64 H31         5.6674    -7.8828    85.2629 H          1           0.1253
@<TRIPOS>BOND
     1    1    2 1
     2    1   37 1
     3    1   38 1
     4    1   39 1
     5    2    3 1
     6    3   36 ar
     7    3    4 ar
     8    4    5 ar
     9    4   40 1
    10    5    6 ar
    11    5   41 1
    12    6   35 ar
    13    6    7 ar
    14    7    8 ar
    15    8    9 ar
    16    8   42 1
    17    9   10 ar
    18    9   43 1
    19   10   11 1
    20   10   35 ar
    21   11   12 1
    22   11   13 1
    23   11   44 1
    24   12   45 1
    25   13   14 1
    26   13   46 1
    27   13   47 1
    28   14   15 1
    29   14   20 1
    30   14   16 1
    31   16   17 1
    32   16   48 1
    33   16   49 1
    34   17   18 1
    35   17   50 1
    36   17   51 1
    37   18   19 1
    38   18   21 1
    39   18   52 1
    40   19   20 1
    41   19   53 1
    42   19   54 1
    43   20   55 1
    44   20   56 1
    45   21   22 1
    46   21   23 1
    47   21   24 1
    48   24   25 1
    49   24   57 1
    50   24   58 1
    51   25   34 1
    52   25   26 2
    53   26   27 1
    54   26   28 1
    55   28   33 ar
    56   28   29 ar
    57   29   30 ar
    58   29   59 1
    59   30   31 ar
    60   30   60 1
    61   31   32 ar
    62   31   61 1
    63   32   33 ar
    64   32   62 1
    65   33   34 1
    66   34   63 1
    67   35   36 ar
    68   36   64 1
##########                 Name:              T539239
##########          Protonation:                   12
##########               SMILES:   CN1CC[NH+](CC1)Cc2ccc(o2)c3ccc4c(cc[nH+]c4c3)Nc5ccc(cc5F)Cl
##########            Long Name:   )-7-[5-[(4-methylpiperazin-1-ium-1-yl)methyl]-2-furyl]quinolin-1-ium-4-amine
##########          FlexRecCode: 1
##########               Number:                  164
##########   Ligand Source File: /raidb/db2/rgc/tcams/tcams-0001893.db2.gz
##########           GlobalRank: 488
##########                 Rank:                    1
##########               Setnum:                  225
##########             Matchnum:                  577
##########                Cloud:                    1
##########        Electrostatic:           -37.969177
##########        Van der Waals:           -35.649094
##########  Ligand Polar Desolv:            13.545060
########## Ligand Apolar Desolv:            -3.467240
##########      Internal Energy:             0.000000
##########      Receptor Energy: 0.0
########## Receptor Desolvation:             0.000000
########## Receptor Hydrophobic:             0.000000
##########         Total Energy: -63.54
##########        Ligand Charge:             2.000000
##########            Arbitrary:    +999.9990
##########     heavy atom count:   32
##########           pose count:    1
##########        Ligand Energy:             0.000000
# num electro vdwattr vdwrepu polsolv apolsol rdesolv rhydroe totalscore fullpol fullapo
#   1   -0.13   -1.22    0.37    0.08   -0.17    0.00    0.00      -1.07    0.22   -0.48
#   2   17.69   -2.15    0.66   -7.41    1.60    0.00    0.00      10.39  -16.90    3.64
#   3   -0.89   -1.08    0.30    0.24   -0.16    0.00    0.00      -1.60    0.63   -0.44
#   4    1.14   -0.55    0.05   -0.20   -0.10    0.00    0.00       0.34   -0.73   -0.37
#   5    7.68   -1.29    0.46   -4.72    0.09    0.00    0.00       2.22  -14.32    0.28
#   6  -16.06   -0.08    0.01    6.63    0.18    0.00    0.00      -9.31   19.11    0.53
#   7   -0.54   -0.55    0.07    0.95   -0.09    0.00    0.00      -0.17    4.11   -0.39
#   8    0.77   -0.93    0.13   -0.25   -0.07    0.00    0.00      -0.34   -1.01   -0.27
#   9    0.50   -0.98    0.15   -1.58   -0.11    0.00    0.00      -2.02   -6.12   -0.43
#  10    2.15   -0.88    0.12   -1.52   -0.12    0.00    0.00      -0.25   -6.08   -0.48
#  11   -0.98   -1.03    0.21    0.06   -0.08    0.00    0.00      -1.82    0.23   -0.32
#  12    4.02   -0.89    0.14   -1.31    0.07    0.00    0.00       2.03   -5.22    0.27
#  13   -1.98   -1.06    0.31    0.25   -0.09    0.00    0.00      -2.58    1.07   -0.41
#  14    3.06   -1.74    1.43   -0.83   -0.12    0.00    0.00       1.80   -3.11   -0.44
#  15    1.16   -1.19    0.24   -0.72   -0.13    0.00    0.00      -0.64   -2.42   -0.45
#  16    2.34   -0.81    0.04   -0.99   -0.11    0.00    0.00       0.47   -3.47   -0.40
#  17   -5.86   -1.19    0.12    3.38   -0.24    0.00    0.00      -3.79    8.81   -0.63
#  18   10.77   -1.46    0.25   -7.56    0.40    0.00    0.00       2.39  -17.44    0.92
#  19   -1.42   -1.34    0.12    1.79   -0.29    0.00    0.00      -1.14    4.29   -0.69
#  20    0.94   -1.31    0.16   -0.96   -0.13    0.00    0.00      -1.31   -2.75   -0.38
#  21    0.39   -1.46    0.19   -0.54   -0.17    0.00    0.00      -1.58   -1.43   -0.46
#  22    0.15   -1.55    0.30   -0.64   -0.14    0.00    0.00      -1.87   -1.38   -0.30
#  23    0.19   -3.48    0.55   -0.92   -0.57    0.00    0.00      -4.23   -1.58   -0.99
#  24    1.30   -1.89    0.60   -1.06   -0.22    0.00    0.00      -1.27   -2.18   -0.46
#  25   -1.43   -1.75    0.25    0.17   -0.18    0.00    0.00      -2.94    0.32   -0.34
#  26    2.46   -1.32    0.15   -1.45   -0.28    0.00    0.00      -0.44   -2.42   -0.46
#  27    3.65   -1.89    0.33   -3.71   -0.16    0.00    0.00      -1.77   -8.32   -0.35
#  28   -4.22   -1.52    0.19    5.34   -0.44    0.00    0.00      -0.64   11.60   -0.96
#  29    9.09   -0.84    0.03   -5.81    0.32    0.00    0.00       2.79  -17.43    0.97
#  30   -9.07   -0.01    0.00    2.67    0.07    0.00    0.00      -6.34   20.72    0.58
#  31   -3.43   -0.69    0.03    1.47   -0.18    0.00    0.00      -2.81    5.88   -0.72
#  32    2.89   -0.64    0.03   -0.81   -0.10    0.00    0.00       1.38   -3.65   -0.45
#  33    1.07   -1.10    0.23   -0.44   -0.14    0.00    0.00      -0.38   -1.12   -0.35
#  34   -1.14   -1.62    0.43    0.42   -0.21    0.00    0.00      -2.11    0.90   -0.44
#  35   -1.31   -0.20    0.02    0.13   -0.06    0.00    0.00      -1.41    0.64   -0.28
#  36   -1.66   -0.27    0.07    0.20   -0.07    0.00    0.00      -1.73    0.87   -0.28
#  37   -1.03   -1.03    1.46    1.23   -0.07    0.00    0.00       0.57    2.93   -0.17
#  38   -2.95   -0.22    0.03    0.49   -0.06    0.00    0.00      -2.70    2.37   -0.28
#  39   -3.96   -1.07    2.03    1.60   -0.12    0.00    0.00      -1.52    3.84   -0.28
#  40   -2.01   -0.08    0.00    0.39   -0.02    0.00    0.00      -1.72    5.44   -0.22
#  41   -3.51   -0.16    0.01    1.31   -0.04    0.00    0.00      -2.39    8.22   -0.28
#  42   -0.59   -0.22    0.04    1.38   -0.05    0.00    0.00       0.56    8.02   -0.28
#  43   -0.89   -0.07    0.00    0.58   -0.02    0.00    0.00      -0.40    8.68   -0.28
#  44   -0.41   -0.21    0.04    1.17   -0.05    0.00    0.00       0.53    6.17   -0.28
#  45   -1.77   -0.15    0.02    0.60   -0.04    0.00    0.00      -1.33    4.17   -0.25
#  46   -5.78   -0.41    0.27    1.02   -0.06    0.00    0.00      -4.96    4.25   -0.24
#  47   -4.18   -0.39    0.15    1.08   -0.06    0.00    0.00      -3.39    4.06   -0.24
#  48   -8.12   -0.04    0.00    3.86    0.17    0.00    0.00      -4.12   11.06    0.50
#  49   -0.77   -0.25    0.05    1.44   -0.04    0.00    0.00       0.43    7.12   -0.18
#  50   -0.38   -0.32    0.05    1.10   -0.08    0.00    0.00       0.37    4.04   -0.28
#  51   -2.34   -0.42    0.10    0.59   -0.12    0.00    0.00      -2.19    1.43   -0.28
#  52   -2.85   -0.60    0.17    3.21   -0.11    0.00    0.00      -0.18    6.61   -0.23
#  53   -4.55   -0.45    0.16    5.69   -0.12    0.00    0.00       0.73   13.31   -0.28
#  54   -2.88   -0.10    0.00    0.75   -0.03    0.00    0.00      -2.25    8.05   -0.27
#  55   -1.73   -0.46    0.27    1.30   -0.05    0.00    0.00      -0.67    5.45   -0.22
#  56   -1.46   -0.40    0.10    1.74   -0.06    0.00    0.00      -0.10    5.62   -0.21
#  57   -4.31   -0.91    0.68    1.74   -0.14    0.00    0.00      -2.93    3.57   -0.28
#  58   -4.78   -0.76    0.64    0.90   -0.12    0.00    0.00      -4.12    2.05   -0.28

@<TRIPOS>MOLECULE
          T539239        12
   58    62     0     0     0



@<TRIPOS>ATOM
      1 C1         10.1560    -5.7552    86.2101 C.3        1           0.0051
      2 N1          9.7099    -4.6266    87.0378 N.3        1          -0.5285
      3 C2          9.2495    -5.0890    88.3548 C.3        1           0.0306
      4 C3          7.9991    -5.9535    88.1801 C.3        1          -0.0502
      5 N2          6.9472    -5.1664    87.5232 N.4        1          -0.3818
      6 H1          6.7322    -4.3568    88.0858 H          1           0.4242
      7 C4          5.7411    -5.9913    87.3717 C.3        1           0.0858
      8 C5          4.9899    -6.0271    88.6777 C.2        1          -0.0722
      9 C6          3.6581    -5.8800    88.8223 C.2        1          -0.1414
     10 C7          3.3787    -5.9808    90.1995 C.2        1          -0.1556
     11 C8          4.5681    -6.1861    90.8263 C.2        1           0.0386
     12 O1          5.5358    -6.2169    89.8897 O.3        1          -0.1589
     13 C9          4.7640    -6.3521    92.2810 C.ar       1           0.0684
     14 C10         6.0583    -6.5529    92.7916 C.ar       1          -0.0901
     15 C11         6.2604    -6.7076    94.1264 C.ar       1          -0.0418
     16 C12         5.1713    -6.6674    95.0102 C.ar       1          -0.1102
     17 C13         5.3547    -6.8253    96.4044 C.ar       1           0.3404
     18 N3          6.6179    -7.0249    96.9412 N.pl3      1          -0.6396
     19 C14         7.1157    -8.3235    97.0947 C.ar       1           0.1115
     20 C15         6.7253    -9.3264    96.2174 C.ar       1          -0.1313
     21 C16         7.2184   -10.6076    96.3705 C.ar       1          -0.0779
     22 C17         8.1012   -10.8933    97.3972 C.ar       1          -0.0194
     23 Cl1         8.7186   -12.5049    97.5853 Cl         1          -0.0249
     24 C18         8.4931    -9.8971    98.2739 C.ar       1          -0.1051
     25 C19         8.0071    -8.6113    98.1227 C.ar       1           0.0944
     26 F1          8.3936    -7.6373    98.9755 F          1          -0.1219
     27 C20         4.2325    -6.7740    97.2177 C.ar       1          -0.2307
     28 C21         2.9813    -6.5725    96.6516 C.ar       1           0.2357
     29 N4          2.8226    -6.4272    95.3565 N.ar       1          -0.4926
     30 H2          1.9303    -6.2883    95.0023 H          1           0.4481
     31 C22         3.8612    -6.4656    94.5119 C.ar       1           0.1731
     32 C23         3.6713    -6.3028    93.1314 C.ar       1          -0.1318
     33 C24         7.4125    -4.7326    86.1993 C.3        1          -0.0575
     34 C25         8.6582    -3.8578    86.3575 C.3        1           0.0327
     35 H3         10.9344    -6.3070    86.7371 H          1           0.0897
     36 H4          9.3125    -6.4163    86.0121 H          1           0.0899
     37 H5         10.5525    -5.3795    85.2667 H          1           0.0301
     38 H6         10.0352    -5.6774    88.8287 H          1           0.1300
     39 H7          9.0121    -4.2282    88.9798 H          1           0.1046
     40 H8          8.2402    -6.8214    87.5663 H          1           0.1349
     41 H9          7.6476    -6.2859    89.1569 H          1           0.1420
     42 H10         5.1038    -5.5641    86.5975 H          1           0.1602
     43 H11         6.0270    -7.0045    87.0891 H          1           0.1503
     44 H12         2.9407    -5.7158    88.0319 H          1           0.1727
     45 H13         2.4078    -5.9085    90.6670 H          1           0.1739
     46 H14         6.9005    -6.5848    92.1160 H          1           0.1601
     47 H15         7.2594    -6.8620    94.5069 H          1           0.1607
     48 H16         7.1563    -6.2641    97.2103 H          1           0.4354
     49 H17         6.0361    -9.1050    95.4159 H          1           0.1483
     50 H18         6.9143   -11.3876    95.6883 H          1           0.1560
     51 H19         9.1819   -10.1230    99.0746 H          1           0.1639
     52 H20         4.3316    -6.8905    98.2866 H          1           0.1916
     53 H21         2.1143    -6.5347    97.2943 H          1           0.2174
     54 H22         2.6797    -6.1443    92.7339 H          1           0.1612
     55 H23         7.6568    -5.6066    85.5956 H          1           0.1348
     56 H24         6.6263    -4.1597    85.7076 H          1           0.1359
     57 H25         8.4110    -2.9768    86.9497 H          1           0.1030
     58 H26         9.0123    -3.5480    85.3743 H          1           0.1277
@<TRIPOS>BOND
     1    1    2 1
     2    1   35 1
     3    1   36 1
     4    1   37 1
     5    2   34 1
     6    2    3 1
     7    3    4 1
     8    3   38 1
     9    3   39 1
    10    4    5 1
    11    4   40 1
    12    4   41 1
    13    5    6 1
    14    5    7 1
    15    5   33 1
    16    7    8 1
    17    7   42 1
    18    7   43 1
    19    8   12 1
    20    8    9 2
    21    9   10 1
    22    9   44 1
    23   10   11 2
    24   10   45 1
    25   11   12 1
    26   11   13 1
    27   13   32 ar
    28   13   14 ar
    29   14   15 ar
    30   14   46 1
    31   15   16 ar
    32   15   47 1
    33   16   31 ar
    34   16   17 ar
    35   17   18 1
    36   17   27 ar
    37   18   19 1
    38   18   48 1
    39   19   25 ar
    40   19   20 ar
    41   20   21 ar
    42   20   49 1
    43   21   22 ar
    44   21   50 1
    45   22   23 1
    46   22   24 ar
    47   24   25 ar
    48   24   51 1
    49   25   26 1
    50   27   28 ar
    51   27   52 1
    52   28   29 ar
    53   28   53 1
    54   29   30 1
    55   29   31 ar
    56   31   32 ar
    57   32   54 1
    58   33   34 1
    59   33   55 1
    60   33   56 1
    61   34   57 1
    62   34   58 1
##########                 Name:              T541448
##########          Protonation:                   84
##########               SMILES:   1ccc2c(c1)c(c(s2)C(=O)N[C@@H]3CC[NH+](C3)CCCCCNC(=O)/C=C\c4ccc(c(c4)Cl)Cl)Cl
##########            Long Name:   prop-2-enoyl]amino]pentyl]pyrrolidin-1-ium-3-yl]benzothiophene-2-carboxamide
##########          FlexRecCode: 1
##########               Number:                  228
##########   Ligand Source File: /raidb/db2/rgc/tcams/tcams-0002102.db2.gz
##########           GlobalRank: 489
##########                 Rank:                    1
##########               Setnum:                   40
##########             Matchnum:                 2763
##########                Cloud:                    1
##########        Electrostatic:           -38.110794
##########        Van der Waals:           -32.014759
##########  Ligand Polar Desolv:            10.103661
########## Ligand Apolar Desolv:            -3.510587
##########      Internal Energy:             0.000000
##########      Receptor Energy: 0.0
########## Receptor Desolvation:             0.000000
########## Receptor Hydrophobic:             0.000000
##########         Total Energy: -63.53
##########        Ligand Charge:             1.000000
##########            Arbitrary:    +999.9990
##########     heavy atom count:   36
##########           pose count:    1
##########        Ligand Energy:             0.000000
# num electro vdwattr vdwrepu polsolv apolsol rdesolv rhydroe totalscore fullpol fullapo
#   1    0.03   -3.53    3.95   -0.08   -0.22    0.00    0.00       0.14   -0.33   -0.90
#   2   -0.20   -1.66    0.63   -0.10   -0.10    0.00    0.00      -1.43   -0.31   -0.30
#   3    2.02   -1.42    0.19   -0.75   -0.12    0.00    0.00      -0.08   -1.95   -0.31
#   4   -0.91   -3.92    2.56    1.22   -0.37    0.00    0.00      -1.41    2.70   -0.81
#   5    0.52   -1.57    0.28   -0.48   -0.13    0.00    0.00      -1.39   -1.20   -0.32
#   6    0.65   -1.48    0.15   -0.47   -0.25    0.00    0.00      -1.39   -0.88   -0.47
#   7    0.58   -1.69    0.24   -0.36   -0.24    0.00    0.00      -1.47   -0.72   -0.48
#   8    1.18   -1.75    0.44   -0.43   -0.20    0.00    0.00      -0.75   -1.02   -0.47
#   9    0.18   -1.61    0.39   -0.21   -0.16    0.00    0.00      -1.41   -0.62   -0.46
#  10    0.44   -1.54    0.29   -0.31   -0.14    0.00    0.00      -1.26   -0.88   -0.41
#  11   -8.84   -1.32    0.13    2.77   -0.26    0.00    0.00      -7.52    7.02   -0.65
#  12    9.52   -2.09    1.29   -1.91    0.16    0.00    0.00       6.96   -4.26    0.36
#  13    9.19   -1.48    0.18   -5.31    0.84    0.00    0.00       3.42  -13.14    2.08
#  14   -2.94   -1.16    0.19    1.14   -0.15    0.00    0.00      -2.93    2.45   -0.33
#  15    3.92   -1.07    0.15   -1.98   -0.13    0.00    0.00       0.88   -4.11   -0.28
#  16    0.26   -0.53    0.02    0.13   -0.14    0.00    0.00      -0.27    0.40   -0.45
#  17    9.52   -0.75    0.04   -3.89    0.14    0.00    0.00       5.06  -12.10    0.45
#  18  -11.11   -0.02    0.00    4.26    0.14    0.00    0.00      -6.73   17.04    0.56
#  19    0.25   -0.51    0.03    0.05   -0.08    0.00    0.00      -0.27    0.19   -0.32
#  20    2.83   -0.57    0.07   -1.04   -0.05    0.00    0.00       1.24   -4.23   -0.21
#  21    2.04   -0.47    0.04   -0.66   -0.05    0.00    0.00       0.90   -2.88   -0.22
#  22    0.73   -0.50    0.07   -0.54   -0.05    0.00    0.00      -0.29   -2.40   -0.22
#  23   -0.37   -0.31    0.02    0.28   -0.08    0.00    0.00      -0.47    1.54   -0.43
#  24    3.17   -1.03    0.17   -2.43    0.59    0.00    0.00       0.48   -9.55    2.33
#  25   -2.21   -1.13    0.26    1.22   -0.15    0.00    0.00      -2.01    4.84   -0.59
#  26    1.62   -0.63    0.04   -0.62    0.07    0.00    0.00       0.48   -2.75    0.30
#  27    2.12   -1.93    1.07   -0.75   -0.16    0.00    0.00       0.35   -2.17   -0.45
#  28    0.29   -1.18    0.16   -0.19   -0.15    0.00    0.00      -1.06   -0.56   -0.44
#  29    0.99   -0.54    0.03   -0.04   -0.06    0.00    0.00       0.37   -0.23   -0.30
#  30    0.77   -0.84    0.11   -0.04   -0.07    0.00    0.00      -0.07   -0.18   -0.31
#  31    1.67   -0.50    0.04   -0.08   -0.08    0.00    0.00       1.04   -0.46   -0.46
#  32    0.17   -0.20    0.00   -0.01   -0.02    0.00    0.00      -0.06   -0.14   -0.30
#  33    0.25   -0.37    0.01   -0.01   -0.08    0.00    0.00      -0.19   -0.11   -0.95
#  34    0.24   -0.16    0.00   -0.01   -0.02    0.00    0.00       0.06   -0.14   -0.30
#  35    0.10   -0.20    0.00   -0.01   -0.06    0.00    0.00      -0.15   -0.10   -0.95
#  36    0.72   -0.32    0.01   -0.05   -0.05    0.00    0.00       0.31   -0.44   -0.45
#  37    0.53   -1.03    0.13    0.19   -0.19    0.00    0.00      -0.38    0.45   -0.45
#  38   -1.08   -0.33    0.03    1.02   -0.12    0.00    0.00      -0.48    2.34   -0.28
#  39   -1.79   -0.50    0.14    1.15   -0.14    0.00    0.00      -1.14    2.34   -0.28
#  40   -2.50   -0.58    0.46    0.50   -0.09    0.00    0.00      -2.20    1.54   -0.28
#  41   -0.25   -0.33    0.12    0.13   -0.06    0.00    0.00      -0.39    0.59   -0.26
#  42   -1.82   -0.03    0.00    2.96    0.16    0.00    0.00       1.28    9.58    0.53
#  43   -3.33   -0.93    1.17    0.98   -0.12    0.00    0.00      -2.23    2.18   -0.26
#  44   -2.40   -0.43    0.10    1.04   -0.12    0.00    0.00      -1.82    2.37   -0.28
#  45   -3.68   -0.46    0.09    0.46   -0.13    0.00    0.00      -3.72    0.99   -0.28
#  46   -1.61   -0.15    0.01    0.70   -0.03    0.00    0.00      -1.08    5.33   -0.22
#  47   -3.08   -0.15    0.01    0.78   -0.04    0.00    0.00      -2.49    5.12   -0.28
#  48   -5.09   -0.32    0.11    1.16   -0.06    0.00    0.00      -4.19    5.43   -0.28
#  49   -2.31   -0.10    0.00    0.45   -0.03    0.00    0.00      -1.98    4.93   -0.28
#  50   -1.10   -0.09    0.00    0.29   -0.02    0.00    0.00      -0.92    3.27   -0.23
#  51   -1.81   -0.48    0.28    0.86   -0.07    0.00    0.00      -1.21    3.26   -0.28
#  52   -2.41   -0.29    0.07    0.34   -0.07    0.00    0.00      -2.36    1.45   -0.28
#  53   -1.03   -0.06    0.00    0.09   -0.02    0.00    0.00      -1.02    1.58   -0.28
#  54   -0.20   -0.07    0.00    0.16   -0.02    0.00    0.00      -0.13    1.94   -0.28
#  55   -0.19   -0.48    0.44    0.48   -0.08    0.00    0.00       0.18    1.77   -0.28
#  56   -0.31   -0.04    0.00    0.01   -0.01    0.00    0.00      -0.35    0.26   -0.28
#  57   -0.15   -0.09    0.01    0.04   -0.03    0.00    0.00      -0.22    0.44   -0.28
#  58   -8.85   -0.02    0.00    1.81    0.14    0.00    0.00      -6.93    7.45    0.56
#  59   -2.22   -0.62    0.47    1.04   -0.09    0.00    0.00      -1.42    3.36   -0.28
#  60   -4.69   -0.29    0.03    0.78   -0.09    0.00    0.00      -4.25    2.47   -0.28
#  61   -4.26   -0.49    0.26    0.35   -0.07    0.00    0.00      -4.22    1.19   -0.25
#  62   -2.39   -0.19    0.04    0.15   -0.05    0.00    0.00      -2.43    0.92   -0.28
#  63   -0.89   -0.12    0.02    0.10   -0.03    0.00    0.00      -0.91    0.99   -0.28
#  64   -4.44   -0.72    0.32    2.43   -0.11    0.00    0.00      -2.53    6.08   -0.28
#  65   -4.15   -0.24    0.02    1.35   -0.06    0.00    0.00      -3.08    5.85   -0.26

@<TRIPOS>MOLECULE
          T541448        84
   65    68     0     0     0



@<TRIPOS>ATOM
      1 Cl1         5.2448    -9.0247    94.1751 Cl         1          -0.0121
      2 C1          6.1248    -9.3615    95.6331 C.2        1           0.0478
      3 C2          6.0803    -8.4862    96.6740 C.2        1          -0.2269
      4 S1          7.1190    -9.2672    97.8967 S.3        1           0.0901
      5 C3          7.5626   -10.7155    96.9711 C.ar       1          -0.0803
      6 C4          8.3474   -11.8198    97.2273 C.ar       1          -0.0866
      7 C5          8.4864   -12.7945    96.2604 C.ar       1          -0.0581
      8 C6          7.8330   -12.6486    95.0425 C.ar       1          -0.1197
      9 C7          7.0572   -11.5666    94.7760 C.ar       1          -0.0472
     10 C8          6.8814   -10.5437    95.7430 C.ar       1          -0.1203
     11 C9          5.3562    -7.2123    96.7678 C.2        1           0.6155
     12 O1          5.9674    -6.1776    96.9580 O.2        1          -0.4888
     13 N1          4.0144    -7.1890    96.6429 N.am       1          -0.7209
     14 C10         3.2920    -5.9181    96.7363 C.3        1           0.1355
     15 C11         1.7897    -6.1140    96.4634 C.3        1          -0.1588
     16 C12         1.8366    -6.3137    94.9337 C.3        1          -0.0127
     17 N2          2.7930    -5.2928    94.4866 N.4        1          -0.3870
     18 H1          2.2966    -4.4610    94.2044 H          1           0.4303
     19 C13         3.5782    -5.8091    93.3576 C.3        1          -0.0098
     20 C14         2.7577    -5.6950    92.0713 C.3        1          -0.1480
     21 C15         3.5756    -6.2328    90.8952 C.3        1          -0.1150
     22 C16         2.7550    -6.1187    89.6090 C.3        1          -0.1327
     23 C17         3.5729    -6.6564    88.4330 C.3        1           0.1188
     24 N3          4.8048    -5.8754    88.2973 N.am       1          -0.7315
     25 C18         5.3704    -5.7139    87.0845 C.2        1           0.5393
     26 O2          4.8575    -6.2172    86.1022 O.2        1          -0.5220
     27 C19         6.6012    -4.9335    86.9490 C.2        1          -0.2150
     28 C20         7.7162    -5.3132    87.6055 C.2        1          -0.0121
     29 C21         7.7766    -6.6349    88.2497 C.ar       1          -0.0552
     30 C22         7.9887    -6.7352    89.6289 C.ar       1          -0.0339
     31 C23         8.0437    -7.9762    90.2262 C.ar       1          -0.1069
     32 C24         7.8898    -9.1231    89.4645 C.ar       1          -0.0195
     33 Cl2         7.9603   -10.6817    90.2258 Cl         1          -0.0476
     34 C25         7.6795    -9.0319    88.0973 C.ar       1          -0.0380
     35 Cl3         7.4874   -10.4752    87.1521 Cl         1          -0.0463
     36 C26         7.6168    -7.7961    87.4871 C.ar       1          -0.0793
     37 C27         3.6802    -4.9824    95.5982 C.3        1          -0.0192
     38 H2          8.8502   -11.9210    98.1778 H          1           0.1428
     39 H3          9.0985   -13.6641    96.4486 H          1           0.1470
     40 H4          7.9452   -13.4146    94.2894 H          1           0.1405
     41 H5          6.5648   -11.4859    93.8182 H          1           0.1363
     42 H6          3.5271    -8.0140    96.4913 H          1           0.4086
     43 H7          3.4572    -5.4466    97.7050 H          1           0.1318
     44 H8          1.4060    -7.0004    96.9687 H          1           0.1039
     45 H9          1.2177    -5.2258    96.7313 H          1           0.1210
     46 H10         2.1970    -7.3124    94.6872 H          1           0.1367
     47 H11         0.8549    -6.1401    94.4930 H          1           0.1372
     48 H12         4.4948    -5.2279    93.2566 H          1           0.1330
     49 H13         3.8288    -6.8546    93.5372 H          1           0.1314
     50 H14         1.8411    -6.2762    92.1722 H          1           0.0885
     51 H15         2.5072    -4.6495    91.8916 H          1           0.0891
     52 H16         4.4922    -5.6517    90.7943 H          1           0.0790
     53 H17         3.8261    -7.2783    91.0750 H          1           0.0782
     54 H18         1.8384    -6.6999    89.7099 H          1           0.0742
     55 H19         2.5044    -5.0733    89.4293 H          1           0.0745
     56 H20         3.8235    -7.7019    88.6127 H          1           0.0693
     57 H21         2.9884    -6.5752    87.5166 H          1           0.0692
     58 H22         5.2135    -5.4742    89.0802 H          1           0.4015
     59 H23         6.6165    -4.0535    86.3230 H          1           0.1387
     60 H24         8.5648    -4.6472    87.6588 H          1           0.1466
     61 H25         8.1091    -5.8423    90.2242 H          1           0.1265
     62 H26         8.2076    -8.0546    91.2909 H          1           0.1400
     63 H27         7.4483    -7.7256    86.4225 H          1           0.1430
     64 H28         3.5478    -3.9447    95.9045 H          1           0.1470
     65 H29         4.7170    -5.1545    95.3090 H          1           0.1384
@<TRIPOS>BOND
     1    1    2 1
     2    2   10 1
     3    2    3 2
     4    3    4 1
     5    3   11 1
     6    4    5 1
     7    5   10 ar
     8    5    6 ar
     9    6    7 ar
    10    6   38 1
    11    7    8 ar
    12    7   39 1
    13    8    9 ar
    14    8   40 1
    15    9   10 ar
    16    9   41 1
    17   11   12 2
    18   11   13 am
    19   13   14 1
    20   13   42 1
    21   14   37 1
    22   14   15 1
    23   14   43 1
    24   15   16 1
    25   15   44 1
    26   15   45 1
    27   16   17 1
    28   16   46 1
    29   16   47 1
    30   17   18 1
    31   17   19 1
    32   17   37 1
    33   19   20 1
    34   19   48 1
    35   19   49 1
    36   20   21 1
    37   20   50 1
    38   20   51 1
    39   21   22 1
    40   21   52 1
    41   21   53 1
    42   22   23 1
    43   22   54 1
    44   22   55 1
    45   23   24 1
    46   23   56 1
    47   23   57 1
    48   24   25 am
    49   24   58 1
    50   25   26 2
    51   25   27 1
    52   27   28 2
    53   27   59 1
    54   28   29 1
    55   28   60 1
    56   29   36 ar
    57   29   30 ar
    58   30   31 ar
    59   30   61 1
    60   31   32 ar
    61   31   62 1
    62   32   33 1
    63   32   34 ar
    64   34   35 1
    65   34   36 ar
    66   36   63 1
    67   37   64 1
    68   37   65 1
##########                 Name:              T535996
##########          Protonation:                   74
##########               SMILES:   c1ccc2c(c1)[nH]c(=[NH+]CCC[NH2+][C@@H]3CCOc4c3cc(cc4Cl)Cl)[nH]2
##########            Long Name:   rochroman-4-yl]-[3-(1,3-dihydrobenzimidazol-2-ylideneammonio)propyl]ammonium
##########          FlexRecCode: 1
##########               Number:                   98
##########   Ligand Source File: /raidb/db2/rgc/tcams/tcams-0001428.db2.gz
##########           GlobalRank: 490
##########                 Rank:                    1
##########               Setnum:                   33
##########             Matchnum:                 6974
##########                Cloud:                    1
##########        Electrostatic:           -43.957901
##########        Van der Waals:           -25.116201
##########  Ligand Polar Desolv:             8.583055
########## Ligand Apolar Desolv:            -3.028787
##########      Internal Energy:             0.000000
##########      Receptor Energy: 0.0
########## Receptor Desolvation:             0.000000
########## Receptor Hydrophobic:             0.000000
##########         Total Energy: -63.52
##########        Ligand Charge:             2.000000
##########            Arbitrary:    +999.9990
##########     heavy atom count:   26
##########           pose count:    1
##########        Ligand Energy:             0.000000
# num electro vdwattr vdwrepu polsolv apolsol rdesolv rhydroe totalscore fullpol fullapo
#   1    0.12   -2.20    0.39   -0.64   -0.31    0.00    0.00      -2.62   -2.04   -0.98
#   2    0.24   -1.32    0.27   -0.70   -0.09    0.00    0.00      -1.61   -2.24   -0.30
#   3    0.27   -1.73    1.17   -0.16   -0.11    0.00    0.00      -0.57   -0.60   -0.42
#   4    1.95   -1.12    0.33   -1.28   -0.10    0.00    0.00      -0.22   -4.82   -0.39
#   5   -2.56   -1.06    0.08    1.45   -0.11    0.00    0.00      -2.20    4.05   -0.30
#   6    5.62   -1.29    0.19   -3.54    0.34    0.00    0.00       1.32   -8.78    0.84
#   7   -1.62   -0.89    0.09    0.14   -0.06    0.00    0.00      -2.33    0.36   -0.14
#   8    3.47   -0.50    0.02   -2.03   -0.06    0.00    0.00       0.89   -6.86   -0.21
#   9   -1.15   -0.49    0.06    1.26   -0.05    0.00    0.00      -0.37    6.06   -0.24
#  10   12.07   -0.58    0.06   -5.43    0.13    0.00    0.00       6.25  -25.00    0.60
#  11  -15.28   -0.02    0.00    4.30    0.10    0.00    0.00     -10.90   23.74    0.56
#  12   -9.80   -0.01    0.00    2.47    0.04    0.00    0.00      -7.30   24.39    0.43
#  13    0.18   -0.39    0.02   -0.11   -0.08    0.00    0.00      -0.37   -0.51   -0.37
#  14    4.37   -0.93    0.22   -2.51   -0.07    0.00    0.00       1.09   -8.60   -0.24
#  15   -2.39   -0.59    0.10    0.68   -0.09    0.00    0.00      -2.30    2.94   -0.41
#  16   16.27   -1.53    0.39   -7.81    0.47    0.00    0.00       7.79  -27.16    1.64
#  17   -7.81   -0.04    0.00    6.13    0.16    0.00    0.00      -1.56   21.68    0.57
#  18  -17.74   -1.29    0.28    7.61   -1.36    0.00    0.00     -12.50   27.72   -4.95
#  19   13.60   -0.87    0.11   -5.22    0.28    0.00    0.00       7.90  -21.52    1.16
#  20   -1.54   -0.77    0.09    0.66   -0.19    0.00    0.00      -1.76    2.71   -0.77
#  21    1.10   -0.61    0.04   -0.60   -0.11    0.00    0.00      -0.18   -2.71   -0.48
#  22    0.74   -0.64    0.03   -0.90   -0.13    0.00    0.00      -0.89   -3.35   -0.47
#  23    1.46   -1.66    0.76   -1.12   -0.16    0.00    0.00      -0.73   -3.27   -0.47
#  24    2.38   -1.73    0.48   -1.18   -0.19    0.00    0.00      -0.24   -3.01   -0.48
#  25   -2.00   -1.00    0.09    0.77   -0.26    0.00    0.00      -2.40    2.28   -0.77
#  26   15.42   -1.37    0.22   -7.33    0.42    0.00    0.00       7.36  -21.18    1.21
#  27    0.63   -1.27    0.10   -1.02   -0.12    0.00    0.00      -1.67   -2.49   -0.29
#  28    0.04   -4.44    1.95   -1.10   -0.52    0.00    0.00      -4.07   -2.04   -0.96
#  29    0.35   -1.24    0.12   -0.74   -0.16    0.00    0.00      -1.67   -2.09   -0.45
#  30   -0.04   -0.36    0.19    2.02   -0.04    0.00    0.00       1.77   10.89   -0.22
#  31   -2.41   -0.50    0.14    0.97   -0.10    0.00    0.00      -1.91    2.81   -0.28
#  32   -4.54   -0.25    0.02    0.80   -0.07    0.00    0.00      -4.03    3.14   -0.28
#  33   -1.85   -0.18    0.01    1.92   -0.05    0.00    0.00      -0.15    9.80   -0.24
#  34   -2.28   -0.12    0.00    0.52   -0.03    0.00    0.00      -1.92    4.76   -0.28
#  35   -0.45   -0.22    0.07    1.67   -0.04    0.00    0.00       1.03   11.15   -0.28
#  36   -1.51   -0.06    0.00    0.56   -0.02    0.00    0.00      -1.02   10.25   -0.28
#  37   -2.65   -0.12    0.01    1.24   -0.03    0.00    0.00      -1.56    9.44   -0.24
#  38   -1.50   -0.24    0.05    1.45   -0.06    0.00    0.00      -0.31    6.27   -0.28
#  39   -5.02   -0.96    1.31    2.37   -0.10    0.00    0.00      -2.39    6.71   -0.28
#  40   -3.22   -0.22    0.06    1.12   -0.05    0.00    0.00      -2.31    6.83   -0.28
#  41   -1.40   -0.06    0.00    0.36   -0.02    0.00    0.00      -1.10    6.69   -0.28
#  42  -10.08   -0.01    0.00    3.11    0.09    0.00    0.00      -6.89   20.12    0.57
#  43   -1.55   -0.12    0.01    0.66   -0.04    0.00    0.00      -1.04    4.97   -0.28
#  44   -0.72   -0.09    0.00    0.23   -0.02    0.00    0.00      -0.60    2.76   -0.28
#  45   -3.61   -0.85    1.57    0.71   -0.08    0.00    0.00      -2.26    2.44   -0.28
#  46   -5.95   -0.76    0.73    1.48   -0.11    0.00    0.00      -4.60    3.85   -0.28
#  47  -11.88   -0.03    0.00    5.04    0.17    0.00    0.00      -6.69   17.72    0.59
#  48   -1.68   -0.22    0.01    0.27   -0.06    0.00    0.00      -1.68    1.22   -0.28

@<TRIPOS>MOLECULE
          T535996        74
   48    51     0     0     0



@<TRIPOS>ATOM
      1 Cl1         7.3588   -11.1376    94.6368 Cl         1          -0.0231
      2 C1          6.6018    -9.6907    95.2259 C.ar       1          -0.0461
      3 C2          5.5806    -9.1012    94.5038 C.ar       1          -0.0827
      4 C3          4.9724    -7.9482    94.9693 C.ar       1          -0.2123
      5 C4          5.3874    -7.3827    96.1626 C.ar       1           0.1832
      6 O1          4.8103    -6.2537    96.6512 O.3        1          -0.2850
      7 C5          4.0504    -5.4495    95.7487 C.3        1           0.0639
      8 C6          3.0539    -6.3689    95.0336 C.3        1          -0.1848
      9 C7          3.8633    -7.3281    94.1578 C.3        1           0.0932
     10 N1          4.4403    -6.5882    93.0275 N.4        1          -0.5070
     11 H1          4.7692    -5.6892    93.3467 H          1           0.4338
     12 H2          5.2122    -7.1113    92.6419 H          1           0.4301
     13 C8          3.4146    -6.3956    91.9937 C.3        1          -0.0094
     14 C9          4.0154    -5.6249    90.8164 C.3        1          -0.1682
     15 C10         5.1861    -6.4180    90.2319 C.3        1           0.1000
     16 N2          5.7614    -5.6801    89.1047 N.pl3      1          -0.6566
     17 H3          5.1991    -5.1018    88.5660 H          1           0.4445
     18 C11         7.0317    -5.8010    88.8252 C.cat      1           0.6648
     19 N3          7.9276    -6.5877    89.5036 N.pl3      1          -0.5779
     20 C12         9.1767    -6.4437    88.9008 C.ar       1           0.0769
     21 C13        10.4208    -6.9960    89.1691 C.ar       1          -0.0848
     22 C14        11.5067    -6.6613    88.3840 C.ar       1          -0.0739
     23 C15        11.3591    -5.7764    87.3302 C.ar       1          -0.0733
     24 C16        10.1245    -5.2212    87.0555 C.ar       1          -0.0834
     25 C17         9.0276    -5.5521    87.8381 C.ar       1           0.0800
     26 N4          7.6881    -5.1666    87.8011 N.pl3      1          -0.5765
     27 C18         6.4160    -7.9768    96.8869 C.ar       1          -0.0502
     28 Cl2         6.9418    -7.2705    98.3830 Cl         1          -0.0026
     29 C19         7.0164    -9.1303    96.4210 C.ar       1          -0.0382
     30 H4          5.2565    -9.5419    93.5726 H          1           0.1375
     31 H5          3.5118    -4.6808    96.3030 H          1           0.0879
     32 H6          4.7140    -4.9853    95.0192 H          1           0.1396
     33 H7          2.4788    -6.9335    95.7675 H          1           0.1171
     34 H8          2.3838    -5.7756    94.4114 H          1           0.1065
     35 H9          3.2086    -8.1133    93.7797 H          1           0.1585
     36 H10         3.0592    -7.3666    91.6488 H          1           0.1445
     37 H11         2.5807    -5.8305    92.4100 H          1           0.1442
     38 H12         3.2544    -5.4820    90.0493 H          1           0.1102
     39 H13         4.3707    -4.6538    91.1612 H          1           0.1098
     40 H14         5.9472    -6.5610    90.9990 H          1           0.1066
     41 H15         4.8307    -7.3891    89.8871 H          1           0.1064
     42 H16         7.7270    -7.1469    90.2703 H          1           0.4540
     43 H17        10.5401    -7.6864    89.9910 H          1           0.1503
     44 H18        12.4750    -7.0915    88.5935 H          1           0.1577
     45 H19        12.2124    -5.5187    86.7206 H          1           0.1579
     46 H20        10.0131    -4.5305    86.2329 H          1           0.1517
     47 H21         7.2898    -4.5539    87.1633 H          1           0.4586
     48 H22         7.8115    -9.5923    96.9874 H          1           0.1671
@<TRIPOS>BOND
     1    1    2 1
     2    2   29 ar
     3    2    3 ar
     4    3    4 ar
     5    3   30 1
     6    4    9 1
     7    4    5 ar
     8    5    6 1
     9    5   27 ar
    10    6    7 1
    11    7    8 1
    12    7   31 1
    13    7   32 1
    14    8    9 1
    15    8   33 1
    16    8   34 1
    17    9   10 1
    18    9   35 1
    19   10   11 1
    20   10   12 1
    21   10   13 1
    22   13   14 1
    23   13   36 1
    24   13   37 1
    25   14   15 1
    26   14   38 1
    27   14   39 1
    28   15   16 1
    29   15   40 1
    30   15   41 1
    31   16   17 1
    32   16   18 2
    33   18   26 1
    34   18   19 1
    35   19   20 1
    36   19   42 1
    37   20   25 ar
    38   20   21 ar
    39   21   22 ar
    40   21   43 1
    41   22   23 ar
    42   22   44 1
    43   23   24 ar
    44   23   45 1
    45   24   25 ar
    46   24   46 1
    47   25   26 1
    48   26   47 1
    49   27   28 1
    50   27   29 ar
    51   29   48 1
##########                 Name:              T536026
##########          Protonation:                   76
##########               SMILES:   c1ccc2c(c1)cc(o2)CNC[C@@H](CCNc3cc(=O)c4ccccc4[nH]3)[NH2+]Cc5cc(cc(c5)Br)Br
##########            Long Name:   3-[(4-oxo-1H-quinolin-2-yl)amino]propyl]-[(3,5-dibromophenyl)methyl]ammonium
##########          FlexRecCode: 1
##########               Number:                  256
##########   Ligand Source File: /raidb/db2/rgc/tcams/tcams-0001599.db2.gz
##########           GlobalRank: 493
##########                 Rank:                    1
##########               Setnum:                   49
##########             Matchnum:                 7070
##########                Cloud:                    1
##########        Electrostatic:           -35.992886
##########        Van der Waals:           -30.255188
##########  Ligand Polar Desolv:             7.017447
########## Ligand Apolar Desolv:            -4.281034
##########      Internal Energy:             0.000000
##########      Receptor Energy: 0.0
########## Receptor Desolvation:             0.000000
########## Receptor Hydrophobic:             0.000000
##########         Total Energy: -63.51
##########        Ligand Charge:             1.000000
##########            Arbitrary:    +999.9990
##########     heavy atom count:   37
##########           pose count:    1
##########        Ligand Energy:             0.000000
# num electro vdwattr vdwrepu polsolv apolsol rdesolv rhydroe totalscore fullpol fullapo
#   1    0.09   -3.78    1.92   -0.49   -0.39    0.00    0.00      -2.65   -1.37   -1.09
#   2    1.04   -0.96    0.19   -0.55   -0.08    0.00    0.00      -0.36   -2.12   -0.30
#   3    0.93   -0.98    0.17   -0.24   -0.11    0.00    0.00      -0.23   -0.95   -0.44
#   4    2.93   -1.21    0.30   -0.61   -0.10    0.00    0.00       1.31   -2.26   -0.37
#   5   -1.39   -1.20    0.54    0.47   -0.11    0.00    0.00      -1.70    1.59   -0.36
#   6   11.69   -0.57    0.07   -4.19    0.14    0.00    0.00       7.15  -20.26    0.70
#   7   -6.70   -0.01    0.00    1.74    0.04    0.00    0.00      -4.93   20.03    0.46
#   8   -7.45   -0.01    0.00    1.30    0.04    0.00    0.00      -6.12   18.35    0.51
#   9   -1.11   -0.84    0.32    0.84   -0.07    0.00    0.00      -0.85    3.23   -0.26
#  10    2.66   -0.52    0.07   -1.40   -0.05    0.00    0.00       0.76   -5.85   -0.19
#  11   -1.41   -0.35    0.03    0.28   -0.07    0.00    0.00      -1.52    1.50   -0.36
#  12    9.38   -0.28    0.01   -2.13    0.20    0.00    0.00       7.17  -18.28    1.68
#  13   -2.36   -0.21    0.01    0.86   -0.17    0.00    0.00      -1.87   10.36   -2.03
#  14    0.94   -0.14    0.00   -0.26   -0.03    0.00    0.00       0.51   -4.14   -0.45
#  15   -0.25   -0.13    0.00   -0.02   -0.02    0.00    0.00      -0.42   -0.29   -0.31
#  16    0.40   -0.07    0.00    0.21    0.02    0.00    0.00       0.56    4.84    0.44
#  17    0.06   -0.28    0.04   -0.10   -0.04    0.00    0.00      -0.33   -1.08   -0.41
#  18    0.01   -0.22    0.02   -0.03   -0.04    0.00    0.00      -0.27   -0.38   -0.46
#  19    0.03   -0.34    0.03   -0.13   -0.06    0.00    0.00      -0.47   -1.08   -0.47
#  20    0.01   -0.74    0.18   -0.16   -0.09    0.00    0.00      -0.80   -0.85   -0.47
#  21    0.07   -1.06    0.67   -0.38   -0.08    0.00    0.00      -0.79   -2.11   -0.46
#  22   -0.02   -0.62    0.26    0.33   -0.09    0.00    0.00      -0.14    2.67   -0.72
#  23    1.14   -0.38    0.05   -1.35    0.12    0.00    0.00      -0.42  -11.77    1.01
#  24   -0.74   -0.79    0.14    0.16   -0.11    0.00    0.00      -1.33    0.49   -0.35
#  25   12.30   -0.81    0.04   -6.04    0.65    0.00    0.00       6.15  -21.51    2.32
#  26   -2.20   -0.83    0.07    1.44   -0.18    0.00    0.00      -1.70    3.72   -0.47
#  27   -0.05   -1.43    0.17    0.31   -0.13    0.00    0.00      -1.13    0.74   -0.31
#  28    2.29   -1.63    0.19   -1.53   -0.25    0.00    0.00      -0.93   -3.10   -0.50
#  29    1.59   -1.85    0.55   -0.74   -0.20    0.00    0.00      -0.66   -1.61   -0.44
#  30    0.89   -1.96    0.55   -0.45   -0.24    0.00    0.00      -1.21   -0.88   -0.47
#  31    1.19   -1.89    0.40   -0.70   -0.26    0.00    0.00      -1.26   -1.28   -0.47
#  32    0.60   -1.69    0.22   -0.53   -0.26    0.00    0.00      -1.67   -0.96   -0.47
#  33    0.45   -1.98    0.45   -0.48   -0.21    0.00    0.00      -1.78   -1.09   -0.48
#  34   -0.31   -2.00    0.56    0.00   -0.14    0.00    0.00      -1.88    0.00   -0.35
#  35    0.64   -1.73    0.46   -0.98    0.11    0.00    0.00      -1.50   -2.65    0.29
#  36    0.46   -1.35    0.67   -0.22   -0.11    0.00    0.00      -0.55   -0.84   -0.44
#  37    0.16   -1.40    1.14   -0.49   -0.07    0.00    0.00      -0.67   -2.06   -0.30
#  38    0.00   -2.31    0.51   -0.34   -0.28    0.00    0.00      -2.41   -1.33   -1.09
#  39    0.14   -1.13    0.50   -0.37   -0.11    0.00    0.00      -0.98   -1.49   -0.45
#  40   -3.15   -0.15    0.01    0.96   -0.04    0.00    0.00      -2.38    6.14   -0.28
#  41   -7.27   -1.00    1.49    2.31   -0.07    0.00    0.00      -4.54    7.19   -0.21
#  42   -5.87   -0.42    0.18    2.19   -0.06    0.00    0.00      -3.99    8.05   -0.23
#  43   -6.87   -0.91    2.43    2.23   -0.08    0.00    0.00      -3.20    8.26   -0.28
#  44   -2.13   -0.37    0.19    0.88   -0.06    0.00    0.00      -1.49    4.27   -0.28
#  45   -0.92   -0.13    0.01    0.66   -0.03    0.00    0.00      -0.41    5.56   -0.22
#  46   -1.14   -0.16    0.02    0.96   -0.04    0.00    0.00      -0.36    5.47   -0.22
#  47   -0.82   -0.08    0.00    0.32   -0.02    0.00    0.00      -0.59    4.24   -0.27
#  48   -7.26   -0.01    0.00    0.77    0.04    0.00    0.00      -6.46   11.66    0.57
#  49   -0.63   -0.03    0.00    0.03   -0.01    0.00    0.00      -0.64    0.81   -0.28
#  50   -0.06   -0.02    0.00   -0.01   -0.01    0.00    0.00      -0.10   -0.56   -0.27
#  51   -0.04   -0.04    0.00    0.03   -0.01    0.00    0.00      -0.06    0.84   -0.28
#  52   -0.20   -0.16    0.01    0.46   -0.05    0.00    0.00       0.07    2.75   -0.28
#  53   -0.37   -0.19    0.05    0.84   -0.05    0.00    0.00       0.28    5.22   -0.28
#  54   -1.61   -0.01    0.00    0.92    0.03    0.00    0.00      -0.66   13.25    0.46
#  55   -2.77   -0.28    0.05    1.32   -0.06    0.00    0.00      -1.74    5.23   -0.22
#  56   -3.62   -0.39    0.21    0.72   -0.08    0.00    0.00      -3.17    2.63   -0.28
#  57   -6.90   -0.01    0.00    1.17    0.06    0.00    0.00      -5.68   11.13    0.57
#  58   -2.29   -0.42    0.20    1.21   -0.08    0.00    0.00      -1.38    4.17   -0.28
#  59   -0.91   -0.31    0.03    0.43   -0.10    0.00    0.00      -0.85    1.27   -0.28
#  60   -2.60   -0.40    0.07    1.79   -0.13    0.00    0.00      -1.26    3.89   -0.28
#  61   -2.31   -0.44    0.08    0.71   -0.13    0.00    0.00      -2.09    1.53   -0.28
#  62   -0.96   -0.56    0.33    0.67   -0.14    0.00    0.00      -0.66    1.30   -0.28
#  63   -1.16   -0.37    0.04    0.71   -0.14    0.00    0.00      -0.93    1.43   -0.28
#  64   -0.12   -0.56    0.20    0.47   -0.10    0.00    0.00      -0.11    1.26   -0.28
#  65   -1.47   -0.19    0.02    1.12   -0.06    0.00    0.00      -0.57    5.52   -0.28
#  66   -0.61   -0.17    0.02    0.16   -0.05    0.00    0.00      -0.65    0.88   -0.28

@<TRIPOS>MOLECULE
          T536026        76
   66    70     0     0     0



@<TRIPOS>ATOM
      1 Br1        -0.9526    -5.1517    93.2980 Br         1          -0.0037
      2 C1          0.4855    -5.3407    92.0846 C.ar       1          -0.0878
      3 C2          1.7885    -5.3240    92.5482 C.ar       1          -0.0559
      4 C3          2.8396    -5.4626    91.6612 C.ar       1          -0.1500
      5 C4          4.2592    -5.4446    92.1669 C.3        1           0.0396
      6 N1          4.6788    -6.8133    92.4966 N.4        1          -0.5037
      7 H1          4.0722    -7.1884    93.2106 H          1           0.4221
      8 H2          4.6231    -7.3904    91.6709 H          1           0.4395
      9 C5          6.0627    -6.7960    92.9893 C.3        1           0.0371
     10 C6          6.6670    -8.1957    92.8614 C.3        1          -0.1598
     11 C7          7.1141    -8.4281    91.4167 C.3        1           0.0934
     12 N2          5.9590    -8.3115    90.5232 N.pl3      1          -0.7320
     13 C8          5.2058    -9.4209    90.2262 C.2        1           0.4689
     14 C9          4.1295    -9.2885    89.3806 C.2        1          -0.3907
     15 C10         3.3457   -10.4092    89.0625 C.2        1           0.4266
     16 O1          2.3860   -10.3128    88.3135 O.2        1          -0.4998
     17 C11         3.7155   -11.7067    89.6593 C.ar       1          -0.1879
     18 C12         2.9828   -12.8619    89.3877 C.ar       1          -0.0304
     19 C13         3.3573   -14.0563    89.9622 C.ar       1          -0.1488
     20 C14         4.4566   -14.1141    90.8070 C.ar       1          -0.0582
     21 C15         5.1894   -12.9810    91.0847 C.ar       1          -0.1723
     22 C16         4.8280   -11.7645    90.5141 C.ar       1           0.1890
     23 N3          5.5511   -10.6180    90.7733 N.pl3      1          -0.6286
     24 C17         6.0757    -6.3672    94.4580 C.3        1           0.0252
     25 N4          4.9450    -6.9892    95.1598 N.3        1          -0.7050
     26 C18         5.1710    -7.0057    96.6112 C.3        1           0.1423
     27 C19         6.0852    -8.1505    96.9642 C.2        1           0.0045
     28 C20         7.1236    -8.0712    97.8074 C.2        1          -0.1638
     29 C21         7.7206    -9.4114    97.8486 C.ar       1          -0.1395
     30 C22         8.8038    -9.9759    98.5206 C.ar       1          -0.0675
     31 C23         9.1038   -11.2968    98.3335 C.ar       1          -0.1309
     32 C24         8.3376   -12.0771    97.4797 C.ar       1          -0.0821
     33 C25         7.2628   -11.5364    96.8068 C.ar       1          -0.1101
     34 C26         6.9406   -10.1964    96.9831 C.ar       1           0.0597
     35 O2          5.9737    -9.4011    96.4832 O.3        1          -0.1949
     36 C27         2.5892    -5.6180    90.3108 C.ar       1          -0.0475
     37 C28         1.2863    -5.6344    89.8462 C.ar       1          -0.0871
     38 Br2         0.9438    -5.8464    87.9987 Br         1          -0.0035
     39 C29         0.2340    -5.5015    90.7341 C.ar       1          -0.0312
     40 H3          1.9847    -5.2020    93.6032 H          1           0.1461
     41 H4          4.9145    -5.0396    91.3958 H          1           0.1502
     42 H5          4.3193    -4.8214    93.0591 H          1           0.1419
     43 H6          6.6493    -6.0915    92.3999 H          1           0.1489
     44 H7          7.5265    -8.2825    93.5260 H          1           0.1287
     45 H8          5.9197    -8.9406    93.1347 H          1           0.1060
     46 H9          7.8616    -7.6834    91.1434 H          1           0.0569
     47 H10         7.5446    -9.4254    91.3257 H          1           0.0826
     48 H11         5.7261    -7.4507    90.1415 H          1           0.4278
     49 H12         3.8871    -8.3231    88.9617 H          1           0.1462
     50 H13         2.1265   -12.8200    88.7309 H          1           0.1426
     51 H14         2.7919   -14.9527    89.7543 H          1           0.1352
     52 H15         4.7403   -15.0566    91.2515 H          1           0.1352
     53 H16         6.0433   -13.0369    91.7437 H          1           0.1289
     54 H17         6.3208   -10.6659    91.3616 H          1           0.4064
     55 H18         7.0099    -6.6850    94.9210 H          1           0.1078
     56 H19         5.9897    -5.2823    94.5205 H          1           0.0906
     57 H20         4.0789    -6.5235    94.9341 H          1           0.3575
     58 H21         5.6304    -6.0661    96.9181 H          1           0.1139
     59 H22         4.2183    -7.1294    97.1260 H          1           0.0683
     60 H23         7.4546    -7.1968    98.3481 H          1           0.1573
     61 H24         9.4036    -9.3724    99.1856 H          1           0.1291
     62 H25         9.9427   -11.7353    98.8535 H          1           0.1342
     63 H26         8.5860   -13.1189    97.3405 H          1           0.1402
     64 H27         6.6732   -12.1525    96.1442 H          1           0.1343
     65 H28         3.4107    -5.7263    89.6184 H          1           0.1523
     66 H29        -0.7834    -5.5187    90.3722 H          1           0.1555
@<TRIPOS>BOND
     1    1    2 1
     2    2   39 ar
     3    2    3 ar
     4    3    4 ar
     5    3   40 1
     6    4    5 1
     7    4   36 ar
     8    5    6 1
     9    5   41 1
    10    5   42 1
    11    6    7 1
    12    6    8 1
    13    6    9 1
    14    9   10 1
    15    9   24 1
    16    9   43 1
    17   10   11 1
    18   10   44 1
    19   10   45 1
    20   11   12 1
    21   11   46 1
    22   11   47 1
    23   12   13 1
    24   12   48 1
    25   13   23 1
    26   13   14 2
    27   14   15 1
    28   14   49 1
    29   15   16 2
    30   15   17 1
    31   17   22 ar
    32   17   18 ar
    33   18   19 ar
    34   18   50 1
    35   19   20 ar
    36   19   51 1
    37   20   21 ar
    38   20   52 1
    39   21   22 ar
    40   21   53 1
    41   22   23 1
    42   23   54 1
    43   24   25 1
    44   24   55 1
    45   24   56 1
    46   25   26 1
    47   25   57 1
    48   26   27 1
    49   26   58 1
    50   26   59 1
    51   27   35 1
    52   27   28 2
    53   28   29 1
    54   28   60 1
    55   29   34 ar
    56   29   30 ar
    57   30   31 ar
    58   30   61 1
    59   31   32 ar
    60   31   62 1
    61   32   33 ar
    62   32   63 1
    63   33   34 ar
    64   33   64 1
    65   34   35 1
    66   36   37 ar
    67   36   65 1
    68   37   38 1
    69   37   39 ar
    70   39   66 1
##########                 Name:              T538870
##########          Protonation:                   32
##########               SMILES:   COc1cc(ccc1)CNC(=O)c2nc(ccc2)c3cc(ccc3)C[NH+]4CC[C@@H](CC4)[NH+]5CCCC5
##########            Long Name:   rrolidin-1-ium-1-ylpiperidin-1-ium-1-yl)methyl]phenyl]pyridine-2-carboxamide
##########          FlexRecCode: 1
##########               Number:                  102
##########   Ligand Source File: /raidb/db2/rgc/tcams/tcams-0001930.db2.gz
##########           GlobalRank: 493
##########                 Rank:                    1
##########               Setnum:                  236
##########             Matchnum:                  503
##########                Cloud:                    1
##########        Electrostatic:           -46.657032
##########        Van der Waals:           -24.601027
##########  Ligand Polar Desolv:            11.189353
########## Ligand Apolar Desolv:            -3.439953
##########      Internal Energy:             0.000000
##########      Receptor Energy: 0.0
########## Receptor Desolvation:             0.000000
########## Receptor Hydrophobic:             0.000000
##########         Total Energy: -63.51
##########        Ligand Charge:             2.000000
##########            Arbitrary:    +999.9990
##########     heavy atom count:   36
##########           pose count:    1
##########        Ligand Energy:             0.000000
# num electro vdwattr vdwrepu polsolv apolsol rdesolv rhydroe totalscore fullpol fullapo
#   1    0.17   -1.88    0.81    0.11    0.01    0.00    0.00      -0.77    0.25    0.03
#   2   -1.52   -1.22    0.27   -1.97    0.31    0.00    0.00      -4.13   -5.90    0.93
#   3    0.14   -1.62    0.98    0.46   -0.09    0.00    0.00      -0.13    1.65   -0.31
#   4    0.18   -0.58    0.09   -0.65   -0.07    0.00    0.00      -1.03   -4.07   -0.42
#   5    0.22   -0.36    0.03   -0.17   -0.06    0.00    0.00      -0.35   -1.31   -0.47
#   6    0.64   -0.56    0.05   -0.51   -0.08    0.00    0.00      -0.46   -2.78   -0.45
#   7    0.34   -1.31    0.37   -0.32   -0.10    0.00    0.00      -1.01   -1.16   -0.37
#   8   -1.70   -0.98    0.22    0.77   -0.15    0.00    0.00      -1.85    2.21   -0.44
#   9    5.46   -1.04    0.11   -3.23    0.76    0.00    0.00       2.06   -9.96    2.33
#  10   -4.95   -1.39    0.44    2.01   -0.23    0.00    0.00      -4.12    5.80   -0.66
#  11    5.09   -1.56    0.37   -1.26    0.15    0.00    0.00       2.80   -3.25    0.39
#  12   -0.82   -1.29    0.20    0.20   -0.25    0.00    0.00      -1.96    0.60   -0.74
#  13    1.09   -1.54    0.25   -0.92   -0.21    0.00    0.00      -1.33   -2.06   -0.46
#  14    0.92   -1.95    0.42   -0.65   -0.25    0.00    0.00      -1.50   -1.26   -0.48
#  15    1.70   -1.48    0.17   -1.16   -0.20    0.00    0.00      -0.97   -2.60   -0.44
#  16   -1.64   -1.05    0.08    1.07   -0.25    0.00    0.00      -1.79    3.16   -0.74
#  17    4.18   -1.12    0.12   -2.33    0.50    0.00    0.00       1.34   -7.45    1.58
#  18    0.35   -0.83    0.07   -0.74   -0.11    0.00    0.00      -1.28   -2.68   -0.41
#  19    1.33   -0.93    0.05   -0.97   -0.14    0.00    0.00      -0.66   -2.94   -0.44
#  20    2.57   -0.83    0.03   -1.37   -0.15    0.00    0.00       0.25   -4.44   -0.47
#  21    2.08   -0.66    0.03   -0.40   -0.08    0.00    0.00       0.97   -1.70   -0.36
#  22    3.00   -0.55    0.03   -0.76   -0.06    0.00    0.00       1.66   -3.94   -0.33
#  23   -0.62   -0.25    0.01    0.43   -0.05    0.00    0.00      -0.49    2.82   -0.36
#  24    8.82   -0.61    0.08   -3.80    0.06    0.00    0.00       4.55  -18.11    0.27
#  25  -15.29   -0.03    0.00    5.05    0.12    0.00    0.00     -10.14   22.19    0.54
#  26    0.11   -0.34    0.02   -0.17   -0.07    0.00    0.00      -0.45   -0.84   -0.35
#  27    1.93   -0.81    0.18   -2.22   -0.06    0.00    0.00      -0.97   -8.30   -0.22
#  28   -0.36   -0.49    0.04    0.41   -0.03    0.00    0.00      -0.44    1.85   -0.15
#  29    4.92   -0.93    0.28   -2.35   -0.06    0.00    0.00       1.87   -8.66   -0.22
#  30    0.06   -0.45    0.06    0.00   -0.08    0.00    0.00      -0.42   -0.02   -0.38
#  31    9.96   -0.97    0.13   -5.77    0.09    0.00    0.00       3.45  -17.50    0.28
#  32  -16.09   -0.04    0.00    7.88    0.19    0.00    0.00      -8.05   22.69    0.56
#  33    0.20   -0.54    0.04    0.35   -0.12    0.00    0.00      -0.07    1.16   -0.39
#  34    4.33   -1.22    0.36   -2.56   -0.12    0.00    0.00       0.80   -6.33   -0.29
#  35    4.33   -2.09    2.22   -2.47   -0.12    0.00    0.00       1.86   -6.11   -0.30
#  36    0.18   -0.84    0.13    0.28   -0.13    0.00    0.00      -0.39    0.80   -0.39
#  37    0.84   -0.70    0.07   -0.40   -0.09    0.00    0.00      -0.29   -1.83   -0.43
#  38    0.19   -2.58    2.44   -0.86   -0.15    0.00    0.00      -0.97   -2.73   -0.46
#  39    0.73   -0.70    0.56    1.25   -0.11    0.00    0.00       1.73    2.96   -0.27
#  40    0.10   -0.76    0.78    0.47   -0.11    0.00    0.00       0.47    1.08   -0.26
#  41    0.51   -1.19    1.17    0.87   -0.13    0.00    0.00       1.24    1.89   -0.28
#  42   -0.10   -0.05    0.00    0.22   -0.01    0.00    0.00       0.05    4.26   -0.22
#  43   -0.30   -0.03    0.00    0.15   -0.01    0.00    0.00      -0.19    5.32   -0.28
#  44   -0.72   -0.07    0.00    0.22   -0.02    0.00    0.00      -0.59    3.43   -0.28
#  45   -1.48   -0.45    0.25    0.05   -0.08    0.00    0.00      -1.71    0.18   -0.28
#  46   -1.05   -0.47    0.18    0.29   -0.09    0.00    0.00      -1.14    0.91   -0.28
#  47   -1.96   -0.01    0.00    1.62    0.10    0.00    0.00      -0.26    8.68    0.52
#  48   -1.95   -0.29    0.04    0.22   -0.08    0.00    0.00      -2.06    0.73   -0.27
#  49   -2.65   -0.51    0.11    1.29   -0.14    0.00    0.00      -1.90    2.63   -0.28
#  50   -2.19   -0.36    0.07    1.36   -0.08    0.00    0.00      -1.19    3.76   -0.21
#  51   -2.94   -0.28    0.03    0.60   -0.06    0.00    0.00      -2.66    2.13   -0.21
#  52   -3.77   -0.22    0.01    0.77   -0.06    0.00    0.00      -3.27    3.45   -0.28
#  53   -2.80   -0.14    0.01    1.26   -0.04    0.00    0.00      -1.71    8.50   -0.27
#  54   -1.07   -0.06    0.00    0.45   -0.02    0.00    0.00      -0.69    7.15   -0.27
#  55   -1.39   -0.06    0.00    0.46   -0.01    0.00    0.00      -1.01    9.00   -0.28
#  56   -1.04   -0.04    0.00    0.37   -0.01    0.00    0.00      -0.72    9.37   -0.28
#  57   -0.92   -0.11    0.01    0.70   -0.03    0.00    0.00      -0.35    5.12   -0.19
#  58   -0.52   -0.19    0.03    1.04   -0.04    0.00    0.00       0.32    6.38   -0.24
#  59   -3.67   -0.83    1.04    2.13   -0.10    0.00    0.00      -1.43    6.23   -0.28
#  60   -1.90   -0.06    0.00    0.53   -0.01    0.00    0.00      -1.44    9.88   -0.27
#  61   -3.20   -0.18    0.02    1.29   -0.04    0.00    0.00      -2.11    7.13   -0.24
#  62   -5.06   -1.27    2.34    2.37   -0.10    0.00    0.00      -1.71    6.89   -0.28
#  63   -3.87   -0.16    0.02    1.20   -0.04    0.00    0.00      -2.86    7.47   -0.28
#  64   -1.96   -0.05    0.00    0.42   -0.01    0.00    0.00      -1.60    8.94   -0.28
#  65   -3.40   -0.23    0.04    1.64   -0.05    0.00    0.00      -2.00    7.94   -0.26
#  66   -1.92   -0.08    0.00    0.46   -0.02    0.00    0.00      -1.55    7.39   -0.27
#  67   -4.01   -0.71    0.43    0.99   -0.12    0.00    0.00      -3.42    2.36   -0.28
#  68   -2.89   -0.37    0.10    0.43   -0.08    0.00    0.00      -2.81    1.46   -0.28
#  69   -4.09   -0.96    1.65    0.47   -0.11    0.00    0.00      -3.04    1.19   -0.28
#  70   -3.25   -1.85    6.51    0.66   -0.10    0.00    0.00       1.97    1.83   -0.28
#  71   -0.70   -0.19    0.03    1.17   -0.04    0.00    0.00       0.28    7.72   -0.25
#  72   -1.65   -0.37    0.09    1.81   -0.08    0.00    0.00      -0.19    6.66   -0.28
#  73   -1.48   -0.12    0.01    0.58   -0.03    0.00    0.00      -1.05    4.95   -0.27
#  74   -0.42   -0.58    0.26    0.38   -0.10    0.00    0.00      -0.46    1.02   -0.28

@<TRIPOS>MOLECULE
          T538870        32
   74    78     0     0     0



@<TRIPOS>ATOM
      1 C1         13.4942   -10.4992    93.7381 C.3        1           0.0269
      2 O1         13.0474   -10.4326    92.3823 O.3        1          -0.3139
      3 C2         11.8109   -10.9290    92.1150 C.ar       1           0.1299
      4 C3         11.3162   -10.9015    90.8189 C.ar       1          -0.2039
      5 C4         10.0594   -11.4071    90.5499 C.ar       1          -0.0843
      6 C5          9.2940   -11.9403    91.5708 C.ar       1          -0.1408
      7 C6          9.7844   -11.9684    92.8632 C.ar       1          -0.0665
      8 C7          8.9476   -12.5495    93.9735 C.3        1           0.1550
      9 N1          8.1253   -11.4935    94.5693 N.am       1          -0.7075
     10 C8          8.5989   -10.7755    95.6070 C.2        1           0.5693
     11 O2          9.7077   -11.0040    96.0482 O.2        1          -0.5123
     12 C9          7.7673    -9.7072    96.2096 C.ar       1           0.0887
     13 C10         7.9129    -9.3997    97.5608 C.ar       1          -0.0948
     14 C11         7.1306    -8.3981    98.1162 C.ar       1          -0.0686
     15 C12         6.2275    -7.7357    97.3032 C.ar       1          -0.1312
     16 C13         6.1314    -8.0933    95.9568 C.ar       1           0.1412
     17 N2          6.8959    -9.0502    95.4562 N.ar       1          -0.4556
     18 C14         5.1659    -7.3893    95.0774 C.ar       1          -0.0232
     19 C15         4.3633    -6.3728    95.5922 C.ar       1          -0.0660
     20 C16         3.4669    -5.7215    94.7697 C.ar       1          -0.1076
     21 C17         3.3639    -6.0758    93.4367 C.ar       1          -0.0943
     22 C18         4.1576    -7.0842    92.9203 C.ar       1          -0.1709
     23 C19         4.0393    -7.4650    91.4671 C.3        1           0.0456
     24 N3          4.9739    -6.6576    90.6717 N.4        1          -0.3879
     25 H1          4.9792    -5.7105    91.0199 H          1           0.4262
     26 C20         4.5464    -6.6585    89.2675 C.3        1          -0.0094
     27 C21         5.4694    -5.7534    88.4487 C.3        1          -0.1681
     28 C22         6.9057    -6.2754    88.5471 C.3        1           0.0180
     29 C23         7.3150    -6.3404    90.0213 C.3        1          -0.1690
     30 C24         6.3233    -7.2248    90.7803 C.3        1          -0.0025
     31 N4          7.8085    -5.3681    87.8262 N.4        1          -0.3926
     32 H2          7.7657    -4.4431    88.2269 H          1           0.4286
     33 C25         9.2005    -5.8841    87.8764 C.3        1          -0.0091
     34 C26         9.8789    -5.1923    86.6672 C.3        1          -0.1460
     35 C27         8.7605    -5.1869    85.5998 C.3        1          -0.1463
     36 C28         7.4461    -5.3204    86.3931 C.3        1          -0.0116
     37 C29         5.0621    -7.7383    93.7325 C.ar       1          -0.0600
     38 C30        11.0434   -11.4690    93.1366 C.ar       1          -0.1316
     39 H3         14.4935   -10.0705    93.8129 H          1           0.0514
     40 H4         12.8095    -9.9381    94.3743 H          1           0.0601
     41 H5         13.5201   -11.5398    94.0614 H          1           0.1061
     42 H6         11.9134   -10.4849    90.0213 H          1           0.1295
     43 H7          9.6737   -11.3857    89.5413 H          1           0.1255
     44 H8          8.3115   -12.3352    91.3585 H          1           0.1262
     45 H9          8.3013   -13.3298    93.5712 H          1           0.0868
     46 H10         9.6001   -12.9756    94.7356 H          1           0.0871
     47 H11         7.2401   -11.3111    94.2171 H          1           0.4054
     48 H12         8.6267    -9.9354    98.1689 H          1           0.1588
     49 H13         7.2240    -8.1407    99.1610 H          1           0.1554
     50 H14         5.6037    -6.9513    97.7058 H          1           0.1463
     51 H15         4.4426    -6.0956    96.6331 H          1           0.1432
     52 H16         2.8444    -4.9338    95.1677 H          1           0.1438
     53 H17         2.6610    -5.5634    92.7965 H          1           0.1329
     54 H18         4.2794    -8.5215    91.3476 H          1           0.1447
     55 H19         3.0204    -7.2830    91.1256 H          1           0.1421
     56 H20         4.5926    -7.6742    88.8748 H          1           0.1418
     57 H21         3.5230    -6.2899    89.1995 H          1           0.1524
     58 H22         5.1515    -5.7570    87.4061 H          1           0.1349
     59 H23         5.4238    -4.7373    88.8405 H          1           0.1106
     60 H24         6.9622    -7.2718    88.1089 H          1           0.1534
     61 H25         8.3162    -6.7634    90.1028 H          1           0.1357
     62 H26         7.3077    -5.3363    90.4458 H          1           0.1115
     63 H27         6.6127    -7.2744    91.8301 H          1           0.1517
     64 H28         6.3306    -8.2282    90.3546 H          1           0.1426
     65 H29         9.6854    -5.5927    88.8079 H          1           0.1386
     66 H30         9.2138    -6.9674    87.7569 H          1           0.1373
     67 H31        10.1744    -4.1744    86.9212 H          1           0.1020
     68 H32        10.7370    -5.7700    86.3238 H          1           0.1228
     69 H33         8.7724    -4.2493    85.0441 H          1           0.1104
     70 H34         8.8811    -6.0314    84.9213 H          1           0.1084
     71 H35         6.9330    -6.2391    86.1090 H          1           0.1326
     72 H36         6.8058    -4.4596    86.2004 H          1           0.1361
     73 H37         5.6847    -8.5222    93.3273 H          1           0.1425
     74 H38        11.4278   -11.4953    94.1455 H          1           0.1355
@<TRIPOS>BOND
     1    1    2 1
     2    1   39 1
     3    1   40 1
     4    1   41 1
     5    2    3 1
     6    3   38 ar
     7    3    4 ar
     8    4    5 ar
     9    4   42 1
    10    5    6 ar
    11    5   43 1
    12    6    7 ar
    13    6   44 1
    14    7    8 1
    15    7   38 ar
    16    8    9 1
    17    8   45 1
    18    8   46 1
    19    9   10 am
    20    9   47 1
    21   10   11 2
    22   10   12 1
    23   12   17 ar
    24   12   13 ar
    25   13   14 ar
    26   13   48 1
    27   14   15 ar
    28   14   49 1
    29   15   16 ar
    30   15   50 1
    31   16   17 ar
    32   16   18 1
    33   18   37 ar
    34   18   19 ar
    35   19   20 ar
    36   19   51 1
    37   20   21 ar
    38   20   52 1
    39   21   22 ar
    40   21   53 1
    41   22   23 1
    42   22   37 ar
    43   23   24 1
    44   23   54 1
    45   23   55 1
    46   24   25 1
    47   24   30 1
    48   24   26 1
    49   26   27 1
    50   26   56 1
    51   26   57 1
    52   27   28 1
    53   27   58 1
    54   27   59 1
    55   28   29 1
    56   28   31 1
    57   28   60 1
    58   29   30 1
    59   29   61 1
    60   29   62 1
    61   30   63 1
    62   30   64 1
    63   31   32 1
    64   31   36 1
    65   31   33 1
    66   33   34 1
    67   33   65 1
    68   33   66 1
    69   34   35 1
    70   34   67 1
    71   34   68 1
    72   35   36 1
    73   35   69 1
    74   35   70 1
    75   36   71 1
    76   36   72 1
    77   37   73 1
    78   38   74 1
##########                 Name:              T541470
##########          Protonation:                   96
##########               SMILES:   COC(=O)c1cccc(c1)C[NH2+]Cc2cccc(c2)c3ccc(cc3)c4[nH]c5ccccc5n4
##########            Long Name:   imidazol-2-yl)phenyl]phenyl]methyl-[(3-methoxycarbonylphenyl)methyl]ammonium
##########          FlexRecCode: 1
##########               Number:                    2
##########   Ligand Source File: /raidb/db2/rgc/tcams/tcams-0002105.db2.gz
##########           GlobalRank: 493
##########                 Rank:                    1
##########               Setnum:                    3
##########             Matchnum:                 3503
##########                Cloud:                    1
##########        Electrostatic:           -41.772655
##########        Van der Waals:           -28.086943
##########  Ligand Polar Desolv:            10.256900
########## Ligand Apolar Desolv:            -3.908010
##########      Internal Energy:             0.000000
##########      Receptor Energy: 0.0
########## Receptor Desolvation:             0.000000
########## Receptor Hydrophobic:             0.000000
##########         Total Energy: -63.51
##########        Ligand Charge:             1.000000
##########            Arbitrary:    +999.9990
##########     heavy atom count:   34
##########           pose count:    1
##########        Ligand Energy:             0.000000
# num electro vdwattr vdwrepu polsolv apolsol rdesolv rhydroe totalscore fullpol fullapo
#   1   -0.13   -1.58    0.52    0.07    0.02    0.00    0.00      -1.10    0.15    0.04
#   2    1.93   -1.41    0.22   -0.93    0.12    0.00    0.00      -0.06   -2.37    0.31
#   3   -1.66   -1.73    0.51    1.25   -0.06    0.00    0.00      -1.68    3.55   -0.16
#   4   -1.32   -3.64    3.87   -1.01   -0.14    0.00    0.00      -2.25   -2.89   -0.39
#   5    1.15   -1.07    0.12   -0.82   -0.13    0.00    0.00      -0.74   -2.62   -0.41
#   6    0.45   -1.23    0.13   -0.45   -0.17    0.00    0.00      -1.28   -1.21   -0.46
#   7    2.91   -1.59    0.31   -1.30   -0.20    0.00    0.00       0.12   -3.03   -0.47
#   8    1.85   -1.40    0.29   -0.24   -0.18    0.00    0.00       0.31   -0.62   -0.45
#   9    4.25   -0.83    0.09   -0.83   -0.09    0.00    0.00       2.58   -3.23   -0.37
#  10   -1.30   -0.61    0.13    0.57   -0.10    0.00    0.00      -1.32    2.47   -0.42
#  11   17.84   -1.57    1.37   -4.79    0.19    0.00    0.00      13.04  -18.56    0.74
#  12  -23.58   -0.17    0.08    5.30    0.17    0.00    0.00     -18.19   17.74    0.57
#  13  -10.43   -0.01    0.00    1.98    0.07    0.00    0.00      -8.38   16.35    0.57
#  14   -1.32   -0.98    0.32    0.66   -0.12    0.00    0.00      -1.44    2.40   -0.42
#  15    4.23   -1.49    0.43   -0.90   -0.10    0.00    0.00       2.18   -3.20   -0.37
#  16    0.70   -1.78    0.98   -0.51   -0.13    0.00    0.00      -0.75   -1.75   -0.45
#  17    0.67   -1.41    0.46   -0.90   -0.14    0.00    0.00      -1.33   -3.02   -0.47
#  18    1.42   -0.94    0.08   -0.62   -0.13    0.00    0.00      -0.18   -2.02   -0.44
#  19    0.70   -0.86    0.09   -0.46   -0.11    0.00    0.00      -0.63   -1.76   -0.41
#  20    2.48   -1.35    0.37   -0.51   -0.11    0.00    0.00       0.88   -1.91   -0.42
#  21    1.00   -0.73    0.06   -0.04   -0.10    0.00    0.00       0.19   -0.16   -0.41
#  22    1.46   -0.62    0.05   -0.26   -0.09    0.00    0.00       0.53   -1.30   -0.44
#  23    0.54   -0.61    0.04   -0.16   -0.10    0.00    0.00      -0.29   -0.70   -0.45
#  24    0.06   -0.61    0.03   -0.17   -0.11    0.00    0.00      -0.81   -0.61   -0.41
#  25    1.49   -1.16    0.26   -0.26   -0.14    0.00    0.00       0.18   -0.81   -0.45
#  26    2.20   -1.09    0.13   -0.48   -0.15    0.00    0.00       0.60   -1.43   -0.44
#  27   -0.49   -0.70    0.06    0.14   -0.53    0.00    0.00      -1.51    0.57   -2.12
#  28   -0.39   -0.58    0.09    0.11    0.36    0.00    0.00      -0.41    0.62    2.03
#  29    0.05   -1.06    0.66   -0.02   -0.15    0.00    0.00      -0.52   -0.11   -0.79
#  30   -0.07   -1.00    0.90   -0.02   -0.07    0.00    0.00      -0.27   -0.15   -0.47
#  31   -0.12   -0.68    0.32   -0.06   -0.07    0.00    0.00      -0.60   -0.40   -0.47
#  32   -0.06   -0.66    0.19   -0.08   -0.08    0.00    0.00      -0.69   -0.50   -0.47
#  33   -0.04   -1.04    0.31   -0.10   -0.11    0.00    0.00      -0.98   -0.45   -0.47
#  34    0.03   -1.23    0.45   -0.01   -0.19    0.00    0.00      -0.95   -0.05   -0.78
#  35    0.84   -1.37    0.40   -0.56    0.34    0.00    0.00      -0.35   -1.89    1.14
#  36    0.36   -0.87    0.12   -0.20   -0.11    0.00    0.00      -0.70   -0.77   -0.43
#  37   -0.67   -0.49    0.20    0.56   -0.11    0.00    0.00      -0.51    1.39   -0.28
#  38    0.11   -1.14    1.46    0.15   -0.14    0.00    0.00       0.43    0.29   -0.28
#  39   -0.45   -0.27    0.02    0.11   -0.09    0.00    0.00      -0.67    0.34   -0.28
#  40   -2.30   -0.25    0.02    0.25   -0.07    0.00    0.00      -2.35    1.01   -0.27
#  41   -3.46   -0.63    0.67    1.25   -0.13    0.00    0.00      -2.30    2.77   -0.28
#  42   -6.06   -0.49    0.32    2.50   -0.10    0.00    0.00      -3.83    6.91   -0.28
#  43   -2.33   -0.08    0.00    0.49   -0.02    0.00    0.00      -1.95    6.29   -0.28
#  44   -4.99   -0.25    0.06    1.64   -0.06    0.00    0.00      -3.60    8.14   -0.28
#  45   -2.21   -0.09    0.00    0.67   -0.03    0.00    0.00      -1.67    6.52   -0.28
#  46   -5.55   -0.65    0.49    2.54   -0.09    0.00    0.00      -3.27    7.63   -0.28
#  47   -0.48   -0.42    0.20    1.52   -0.07    0.00    0.00       0.76    5.79   -0.28
#  48   -0.61   -0.27    0.04    0.48   -0.06    0.00    0.00      -0.42    2.12   -0.28
#  49   -2.84   -0.24    0.04    0.27   -0.05    0.00    0.00      -2.82    1.28   -0.22
#  50   -4.19   -0.29    0.07    1.05   -0.05    0.00    0.00      -3.40    4.63   -0.22
#  51   -1.92   -0.12    0.01    0.44   -0.03    0.00    0.00      -1.62    3.64   -0.21
#  52   -0.73   -0.14    0.02    0.08   -0.04    0.00    0.00      -0.82    0.58   -0.27
#  53   -2.69   -0.59    0.77    0.38   -0.07    0.00    0.00      -2.21    1.38   -0.24
#  54   -4.19   -0.35    0.08    0.59   -0.06    0.00    0.00      -3.94    1.94   -0.21
#  55    0.13   -0.10    0.03    0.01   -0.02    0.00    0.00       0.04    0.15   -0.28
#  56    0.11   -0.06    0.01    0.08   -0.02    0.00    0.00       0.12    1.07   -0.28
#  57    0.08   -0.06    0.00    0.10   -0.02    0.00    0.00       0.10    1.39   -0.28
#  58   -0.01   -0.20    0.03    0.22   -0.05    0.00    0.00      -0.01    1.15   -0.28
#  59   -3.57   -0.04    0.00    0.95    0.16    0.00    0.00      -2.51    3.22    0.53
#  60   -0.61   -0.23    0.06    0.54   -0.04    0.00    0.00      -0.28    3.34   -0.26

@<TRIPOS>MOLECULE
          T541470        96
   60    64     0     0     0



@<TRIPOS>ATOM
      1 C1          7.2531   -11.7557    97.1658 C.3        1           0.0328
      2 O1          7.1519   -10.3532    96.9106 O.3        1          -0.3461
      3 C2          6.4713    -9.9795    95.8098 C.2        1           0.5019
      4 O2          5.9773   -10.8210    95.0863 O.2        1          -0.4949
      5 C3          6.3256    -8.5463    95.4826 C.ar       1          -0.1160
      6 C4          6.8970    -7.5766    96.3091 C.ar       1          -0.0279
      7 C5          6.7571    -6.2403    95.9977 C.ar       1          -0.1232
      8 C6          6.0524    -5.8596    94.8691 C.ar       1          -0.0586
      9 C7          5.4834    -6.8151    94.0461 C.ar       1          -0.1763
     10 C8          4.7178    -6.3910    92.8194 C.3        1           0.0467
     11 N1          5.6350    -6.3053    91.6751 N.4        1          -0.5100
     12 H1          6.3563    -5.6280    91.8722 H          1           0.4273
     13 H2          6.0562    -7.2078    91.5134 H          1           0.4280
     14 C9          4.8887    -5.8921    90.4792 C.3        1           0.0453
     15 C10         5.8296    -5.8041    89.3054 C.ar       1          -0.1608
     16 C11         5.3509    -5.4254    88.0637 C.ar       1          -0.0937
     17 C12         6.2087    -5.3426    86.9819 C.ar       1          -0.1078
     18 C13         7.5481    -5.6381    87.1354 C.ar       1          -0.0779
     19 C14         8.0359    -6.0202    88.3838 C.ar       1          -0.0304
     20 C15         7.1678    -6.0961    89.4721 C.ar       1          -0.0878
     21 C16         9.4738    -6.3396    88.5551 C.ar       1          -0.0518
     22 C17         9.8713    -7.2733    89.5122 C.ar       1          -0.1047
     23 C18        11.2061    -7.5704    89.6721 C.ar       1          -0.0677
     24 C19        12.1624    -6.9370    88.8752 C.ar       1          -0.0088
     25 C20        11.7634    -6.0025    87.9169 C.ar       1          -0.0984
     26 C21        10.4277    -5.7103    87.7552 C.ar       1          -0.0999
     27 C22        13.5956    -7.2549    89.0463 C.2        1           0.3088
     28 N2         14.0696    -8.4123    89.4386 N.2        1          -0.4708
     29 C23        15.4227    -8.3576    89.4865 C.ar       1           0.0462
     30 C24        16.4104    -9.2864    89.8310 C.ar       1          -0.0613
     31 C25        17.7278    -8.9292    89.7809 C.ar       1          -0.1237
     32 C26        18.1003    -7.6505    89.3906 C.ar       1          -0.0910
     33 C27        17.1445    -6.7181    89.0464 C.ar       1          -0.1149
     34 C28        15.8003    -7.0620    89.0910 C.ar       1           0.0565
     35 N3         14.6282    -6.3865    88.8131 N.pl3      1          -0.5941
     36 C29         5.6209    -8.1556    94.3425 C.ar       1          -0.0317
     37 H3          7.8245   -11.9184    98.0796 H          1           0.1113
     38 H4          6.2545   -12.1770    97.2817 H          1           0.0669
     39 H5          7.7577   -12.2414    96.3305 H          1           0.0663
     40 H6          7.4469    -7.8723    97.1903 H          1           0.1522
     41 H7          7.1983    -5.4892    96.6362 H          1           0.1477
     42 H8          5.9460    -4.8118    94.6299 H          1           0.1408
     43 H9          3.9385    -7.1228    92.6065 H          1           0.1423
     44 H10         4.2628    -5.4161    92.9940 H          1           0.1435
     45 H11         4.1094    -6.6238    90.2662 H          1           0.1402
     46 H12         4.4335    -4.9171    90.6539 H          1           0.1411
     47 H13         4.3034    -5.1938    87.9386 H          1           0.1332
     48 H14         5.8296    -5.0463    86.0148 H          1           0.1390
     49 H15         8.2169    -5.5739    86.2898 H          1           0.1382
     50 H16         7.5411    -6.3871    90.4428 H          1           0.1360
     51 H17         9.1318    -7.7631    90.1283 H          1           0.1311
     52 H18        11.5138    -8.2928    90.4135 H          1           0.1458
     53 H19        12.5022    -5.5122    87.3003 H          1           0.1278
     54 H20        10.1187    -4.9905    87.0117 H          1           0.1346
     55 H21        16.1318   -10.2841    90.1364 H          1           0.1324
     56 H22        18.4872    -9.6490    90.0480 H          1           0.1344
     57 H23        19.1463    -7.3837    89.3565 H          1           0.1352
     58 H24        17.4403    -5.7246    88.7435 H          1           0.1263
     59 H25        14.5509    -5.4681    88.5110 H          1           0.4233
     60 H26         5.1803    -8.9006    93.6966 H          1           0.1475
@<TRIPOS>BOND
     1    1    2 1
     2    1   37 1
     3    1   38 1
     4    1   39 1
     5    2    3 1
     6    3    4 2
     7    3    5 1
     8    5   36 ar
     9    5    6 ar
    10    6    7 ar
    11    6   40 1
    12    7    8 ar
    13    7   41 1
    14    8    9 ar
    15    8   42 1
    16    9   10 1
    17    9   36 ar
    18   10   11 1
    19   10   43 1
    20   10   44 1
    21   11   12 1
    22   11   13 1
    23   11   14 1
    24   14   15 1
    25   14   45 1
    26   14   46 1
    27   15   20 ar
    28   15   16 ar
    29   16   17 ar
    30   16   47 1
    31   17   18 ar
    32   17   48 1
    33   18   19 ar
    34   18   49 1
    35   19   20 ar
    36   19   21 1
    37   20   50 1
    38   21   26 ar
    39   21   22 ar
    40   22   23 ar
    41   22   51 1
    42   23   24 ar
    43   23   52 1
    44   24   25 ar
    45   24   27 1
    46   25   26 ar
    47   25   53 1
    48   26   54 1
    49   27   35 1
    50   27   28 2
    51   28   29 1
    52   29   34 ar
    53   29   30 ar
    54   30   31 ar
    55   30   55 1
    56   31   32 ar
    57   31   56 1
    58   32   33 ar
    59   32   57 1
    60   33   34 ar
    61   33   58 1
    62   34   35 1
    63   35   59 1
    64   36   60 1
##########                 Name:              T526851
##########          Protonation:                   23
##########               SMILES:   CC1(NC(=[NH2+])NC(=[NH2+])N1c2ccc3ccccc3c2)C
##########            Long Name:   zaniumylidene-6,6-dimethyl-1-(2-naphthyl)-1,3,5-triazinan-2-ylidene]ammonium
##########          FlexRecCode: 1
##########               Number:                  227
##########   Ligand Source File: /raidb/db2/rgc/tcams/tcams-0000197.db2.gz
##########           GlobalRank: 497
##########                 Rank:                    1
##########               Setnum:                    1
##########             Matchnum:                   99
##########                Cloud:                    1
##########        Electrostatic:           -66.019165
##########        Van der Waals:           -23.528019
##########  Ligand Polar Desolv:            29.428440
########## Ligand Apolar Desolv:            -3.381955
##########      Internal Energy:             0.000000
##########      Receptor Energy: 0.0
########## Receptor Desolvation:             0.000000
########## Receptor Hydrophobic:             0.000000
##########         Total Energy: -63.5
##########        Ligand Charge:             2.000000
##########            Arbitrary:    +999.9990
##########     heavy atom count:   20
##########           pose count:    1
##########        Ligand Energy:             0.000000
# num electro vdwattr vdwrepu polsolv apolsol rdesolv rhydroe totalscore fullpol fullapo
#   1    2.04   -0.62    0.10   -1.98   -0.05    0.00    0.00      -0.49   -7.76   -0.18
#   2   -7.12   -0.65    0.04    6.32   -0.13    0.00    0.00      -1.54   18.10   -0.36
#   3    2.37   -1.42    0.36   -3.22   -0.07    0.00    0.00      -1.99   -6.96   -0.15
#   4   19.01   -1.64    0.23  -14.01    0.65    0.00    0.00       4.24  -32.75    1.52
#   5  -27.08   -1.82    0.27   17.01   -2.03    0.00    0.00     -13.66   37.82   -4.52
#   6   24.35   -3.23    1.32  -15.78    0.44    0.00    0.00       7.11  -31.73    0.89
#   7  -14.15   -0.05    0.00    9.73    0.25    0.00    0.00      -4.21   23.55    0.60
#   8  -20.28   -0.09    0.01   12.49    0.31    0.00    0.00      -7.57   24.44    0.60
#   9   30.56   -3.17    4.03  -14.76    0.54    0.00    0.00      17.20  -31.70    1.15
#  10  -24.45   -1.38    0.42   12.57   -1.45    0.00    0.00     -14.29   36.40   -4.20
#  11   21.66   -1.83    0.85   -9.29    0.27    0.00    0.00      11.66  -30.38    0.87
#  12  -20.67   -0.07    0.01    7.15    0.18    0.00    0.00     -13.40   23.98    0.60
#  13  -10.14   -0.02    0.00    4.10    0.11    0.00    0.00      -5.95   21.16    0.55
#  14   10.91   -0.88    0.04   -8.12    0.34    0.00    0.00       2.28  -24.66    1.03
#  15   -0.77   -1.06    0.07    2.17   -0.13    0.00    0.00       0.27    5.86   -0.36
#  16    2.23   -1.69    0.38   -1.12   -0.21    0.00    0.00      -0.41   -2.37   -0.45
#  17    0.95   -1.78    0.21   -1.86   -0.24    0.00    0.00      -2.72   -3.53   -0.46
#  18    0.36   -1.66    0.33   -0.77   -0.19    0.00    0.00      -1.92   -1.64   -0.40
#  19    1.30   -2.06    0.83   -1.38   -0.24    0.00    0.00      -1.54   -2.69   -0.46
#  20    0.67   -1.85    0.40   -1.51   -0.26    0.00    0.00      -2.56   -2.73   -0.47
#  21    0.62   -1.56    0.17   -1.69   -0.25    0.00    0.00      -2.71   -3.21   -0.47
#  22    0.45   -1.58    0.23   -0.87   -0.18    0.00    0.00      -1.95   -2.17   -0.46
#  23    0.37   -1.42    0.18   -0.72   -0.15    0.00    0.00      -1.73   -1.96   -0.40
#  24    0.35   -1.28    0.21   -0.56   -0.14    0.00    0.00      -1.43   -1.69   -0.42
#  25   -1.66   -0.16    0.01    0.49   -0.04    0.00    0.00      -1.36    3.06   -0.28
#  26   -1.78   -0.10    0.00    0.33   -0.02    0.00    0.00      -1.57    3.77   -0.28
#  27    0.29   -0.62    1.04    0.99   -0.05    0.00    0.00       1.66    4.82   -0.26
#  28   -1.92   -0.52    0.12    0.96   -0.12    0.00    0.00      -1.48    2.15   -0.27
#  29   -1.49   -0.53    0.26    1.03   -0.10    0.00    0.00      -0.83    2.50   -0.25
#  30   -0.58   -0.69    0.45    1.60   -0.11    0.00    0.00       0.66    3.98   -0.28
#  31  -12.55   -0.04    0.00    8.20    0.22    0.00    0.00      -4.17   21.53    0.58
#  32  -29.68   -0.18    0.10   12.52    0.28    0.00    0.00     -16.97   26.30    0.59
#  33   -2.25   -0.87    2.24    2.81   -0.10    0.00    0.00       1.82    7.68   -0.28
#  34   -2.96   -0.45    0.05    1.74   -0.15    0.00    0.00      -1.77    3.29   -0.28
#  35   -2.33   -0.48    0.13    0.95   -0.13    0.00    0.00      -1.86    2.07   -0.28
#  36   -0.86   -0.45    0.07    0.55   -0.14    0.00    0.00      -0.82    1.10   -0.28
#  37   -1.28   -0.34    0.04    0.73   -0.13    0.00    0.00      -0.99    1.61   -0.28
#  38   -0.15   -0.41    0.11    1.20   -0.08    0.00    0.00       0.67    4.13   -0.28
#  39   -0.35   -0.34    0.16    1.42   -0.06    0.00    0.00       0.82    6.81   -0.28

@<TRIPOS>MOLECULE
          T526851        23
   39    41     0     0     0



@<TRIPOS>ATOM
      1 C1          3.1299    -7.2699    94.8664 C.3        1          -0.1853
      2 C2          4.0285    -6.5490    95.8733 C.3        1           0.3969
      3 C3          3.7539    -7.0753    97.2834 C.3        1          -0.1732
      4 N1          3.7741    -5.0975    95.8212 N.pl3      1          -0.7138
      5 C4          4.2844    -4.4044    94.7324 C.cat      1           0.7713
      6 N2          3.5813    -3.5134    94.0935 N.pl3      1          -0.6727
      7 H1          2.6739    -3.3184    94.3752 H          1           0.4670
      8 H2          3.9652    -3.0449    93.3357 H          1           0.4587
      9 N3          5.5914    -4.7148    94.3616 N.pl3      1          -0.6795
     10 C5          5.9451    -6.0611    94.4376 C.cat      1           0.7616
     11 N4          6.7019    -6.6254    93.5403 N.pl3      1          -0.6702
     12 H3          7.0364    -6.1064    92.7922 H          1           0.4572
     13 H4          6.9309    -7.5646    93.6202 H          1           0.4654
     14 N5          5.4449    -6.7669    95.5251 N.pl3      1          -0.5517
     15 C6          6.2495    -7.6449    96.2576 C.ar       1           0.0540
     16 C7          6.9656    -7.1699    97.3630 C.ar       1          -0.1381
     17 C8          7.7556    -8.0007    98.0929 C.ar       1          -0.0591
     18 C9          7.8604    -9.3577    97.7400 C.ar       1          -0.0308
     19 C10         8.6692   -10.2398    98.4767 C.ar       1          -0.1091
     20 C11         8.7487   -11.5478    98.1091 C.ar       1          -0.0811
     21 C12         8.0392   -12.0291    97.0103 C.ar       1          -0.0906
     22 C13         7.2464   -11.2047    96.2730 C.ar       1          -0.1062
     23 C14         7.1387    -9.8471    96.6226 C.ar       1          -0.0536
     24 C15         6.3252    -8.9694    95.8878 C.ar       1          -0.0484
     25 H5          2.0850    -7.1052    95.1289 H          1           0.1133
     26 H6          3.3191    -6.8798    93.8663 H          1           0.1157
     27 H7          3.3457    -8.3381    94.8865 H          1           0.0648
     28 H8          4.3968    -6.5582    97.9958 H          1           0.1138
     29 H9          2.7097    -6.8974    97.5406 H          1           0.0926
     30 H10         3.9596    -8.1451    97.3184 H          1           0.1104
     31 H11         3.2717    -4.6467    96.5177 H          1           0.4620
     32 H12         6.2176    -4.0348    94.0678 H          1           0.4770
     33 H13         6.8893    -6.1286    97.6393 H          1           0.1359
     34 H14         8.3023    -7.6190    98.9426 H          1           0.1495
     35 H15         9.2252    -9.8813    99.3303 H          1           0.1430
     36 H16         9.3716   -12.2230    98.6772 H          1           0.1411
     37 H17         8.1199   -13.0717    96.7399 H          1           0.1398
     38 H18         6.7027   -11.5912    95.4235 H          1           0.1359
     39 H19         5.7663    -9.3294    95.0367 H          1           0.1367
@<TRIPOS>BOND
     1    1    2 1
     2    1   25 1
     3    1   26 1
     4    1   27 1
     5    2   14 1
     6    2    3 1
     7    2    4 1
     8    3   28 1
     9    3   29 1
    10    3   30 1
    11    4    5 1
    12    4   31 1
    13    5    6 2
    14    5    9 1
    15    6    7 1
    16    6    8 1
    17    9   10 1
    18    9   32 1
    19   10   11 2
    20   10   14 1
    21   11   12 1
    22   11   13 1
    23   14   15 1
    24   15   24 ar
    25   15   16 ar
    26   16   17 ar
    27   16   33 1
    28   17   18 ar
    29   17   34 1
    30   18   23 ar
    31   18   19 ar
    32   19   20 ar
    33   19   35 1
    34   20   21 ar
    35   20   36 1
    36   21   22 ar
    37   21   37 1
    38   22   23 ar
    39   22   38 1
    40   23   24 ar
    41   24   39 1
##########                 Name:              T536309
##########          Protonation:                   77
##########               SMILES:   c1ccc2c(c1)c(ccc2OCCN3CC[NH2+]CC3)C[NH+]4CC[C@@H](C4)NC(=O)c5ccc(c(c5)Cl)Cl
##########            Long Name:   iperazin-4-ium-1-ylethoxy)-1-naphthyl]methyl]pyrrolidin-1-ium-3-yl]benzamide
##########          FlexRecCode: 1
##########               Number:                  260
##########   Ligand Source File: /raidb/db2/rgc/tcams/tcams-0001609.db2.gz
##########           GlobalRank: 497
##########                 Rank:                    1
##########               Setnum:                  364
##########             Matchnum:                  796
##########                Cloud:                    1
##########        Electrostatic:           -47.841431
##########        Van der Waals:           -29.226381
##########  Ligand Polar Desolv:            16.689724
########## Ligand Apolar Desolv:            -3.119848
##########      Internal Energy:             0.000000
##########      Receptor Energy: 0.0
########## Receptor Desolvation:             0.000000
########## Receptor Hydrophobic:             0.000000
##########         Total Energy: -63.5
##########        Ligand Charge:             2.000000
##########            Arbitrary:    +999.9990
##########     heavy atom count:   36
##########           pose count:    1
##########        Ligand Energy:             0.000000
# num electro vdwattr vdwrepu polsolv apolsol rdesolv rhydroe totalscore fullpol fullapo
#   1    0.16   -3.66    0.81   -0.50   -0.55    0.00    0.00      -3.76   -0.87   -0.95
#   2    0.01   -1.58    0.33   -0.26   -0.13    0.00    0.00      -1.63   -0.58   -0.29
#   3    1.22   -1.73    0.41   -0.75   -0.22    0.00    0.00      -1.08   -1.57   -0.46
#   4    0.46   -1.41    0.14   -0.39   -0.20    0.00    0.00      -1.40   -0.90   -0.46
#   5    1.26   -1.18    0.11   -0.77   -0.14    0.00    0.00      -0.71   -2.22   -0.41
#   6    0.23   -1.67    0.50   -0.19   -0.15    0.00    0.00      -1.29   -0.56   -0.43
#   7    0.19   -1.51    0.20   -0.38   -0.11    0.00    0.00      -1.60   -0.97   -0.29
#   8    0.17   -4.71    3.47   -0.36   -0.43    0.00    0.00      -1.86   -0.80   -0.95
#   9   -8.10   -0.91    0.07    3.67   -0.20    0.00    0.00      -5.49   11.75   -0.65
#  10    7.58   -0.64    0.03   -2.36    0.10    0.00    0.00       4.70   -9.29    0.38
#  11   13.76   -1.15    0.10   -7.26    0.78    0.00    0.00       6.23  -19.12    2.06
#  12   -3.57   -0.83    0.08    1.33   -0.12    0.00    0.00      -3.11    3.50   -0.32
#  13    6.45   -1.46    0.95   -2.26   -0.13    0.00    0.00       3.55   -5.18   -0.29
#  14    0.18   -1.37    0.86    0.17   -0.14    0.00    0.00      -0.30    0.51   -0.42
#  15    8.34   -0.51    0.02   -3.23    0.10    0.00    0.00       4.72  -14.50    0.45
#  16   -7.07   -0.01    0.00    1.78    0.05    0.00    0.00      -5.25   18.65    0.49
#  17   -0.75   -0.34    0.01    0.39   -0.05    0.00    0.00      -0.73    2.02   -0.28
#  18    2.67   -0.52    0.03   -0.92   -0.07    0.00    0.00       1.19   -4.80   -0.34
#  19    0.26   -1.66    0.73   -0.32   -0.13    0.00    0.00      -1.11   -1.08   -0.43
#  20    1.52   -1.54    0.41   -1.95   -0.13    0.00    0.00      -1.68   -6.45   -0.42
#  21   -0.78   -0.50    0.03    0.56   -0.06    0.00    0.00      -0.74    2.97   -0.31
#  22    0.79   -0.41    0.02   -1.21    0.14    0.00    0.00      -0.68   -7.24    0.81
#  23   -0.24   -0.57    0.07    0.33   -0.02    0.00    0.00      -0.42    1.44   -0.10
#  24   -0.64   -0.34    0.02    0.27   -0.08    0.00    0.00      -0.77    1.43   -0.40
#  25   10.34   -0.79    0.05   -4.62    0.89    0.00    0.00       5.87  -16.22    3.12
#  26   -0.40   -1.08    0.54    0.11   -0.12    0.00    0.00      -0.95    0.38   -0.42
#  27    0.08   -1.69    0.85    0.39   -0.19    0.00    0.00      -0.56    0.97   -0.48
#  28   11.57   -1.29    0.38   -6.63    0.31    0.00    0.00       4.34  -19.10    0.89
#  29   -4.01   -0.01    0.00    3.02    0.09    0.00    0.00      -0.91   19.11    0.57
#  30  -13.52   -0.07    0.01    6.64    0.19    0.00    0.00      -6.76   20.36    0.57
#  31    0.05   -0.88    0.12    0.33   -0.18    0.00    0.00      -0.55    0.90   -0.48
#  32   -0.41   -0.54    0.05    0.05   -0.11    0.00    0.00      -0.95    0.19   -0.40
#  33    0.42   -0.22    0.00   -0.23   -0.03    0.00    0.00      -0.06   -2.72   -0.40
#  34    0.16   -0.11    0.00   -0.12   -0.02    0.00    0.00      -0.10   -2.32   -0.45
#  35    0.07   -0.16    0.01   -0.25   -0.03    0.00    0.00      -0.37   -3.49   -0.47
#  36    0.01   -0.56    0.17   -0.41   -0.06    0.00    0.00      -0.85   -3.20   -0.47
#  37    0.24   -0.46    0.06   -0.45   -0.05    0.00    0.00      -0.66   -3.30   -0.40
#  38   -0.04   -0.27    0.01   -0.04   -0.04    0.00    0.00      -0.39   -0.36   -0.40
#  39    0.51   -0.50    0.01    0.05   -0.14    0.00    0.00      -0.07    0.17   -0.48
#  40   -2.57   -0.37    0.06    0.77   -0.11    0.00    0.00      -2.22    1.95   -0.28
#  41   -2.48   -0.29    0.03    0.70   -0.09    0.00    0.00      -2.13    2.12   -0.26
#  42    0.12   -0.52    0.37    1.42   -0.05    0.00    0.00       1.34    5.94   -0.22
#  43   -7.08   -0.03    0.00    4.37    0.14    0.00    0.00      -2.60   13.79    0.43
#  44   -3.66   -0.55    0.20    0.99   -0.09    0.00    0.00      -3.09    2.96   -0.26
#  45   -5.78   -0.63    0.31    0.75   -0.14    0.00    0.00      -5.49    1.55   -0.28
#  46   -4.34   -0.48    0.41    0.92   -0.08    0.00    0.00      -3.57    3.20   -0.28
#  47   -5.28   -0.47    0.15    2.02   -0.08    0.00    0.00      -3.66    6.09   -0.24
#  48   -6.61   -0.88    1.72    1.41   -0.07    0.00    0.00      -4.42    5.40   -0.28
#  49   -1.29   -0.08    0.00    0.55   -0.02    0.00    0.00      -0.83    7.48   -0.24
#  50   -2.42   -0.13    0.01    0.98   -0.03    0.00    0.00      -1.59    7.54   -0.26
#  51   -3.01   -0.99    1.72    2.26   -0.10    0.00    0.00      -0.13    6.41   -0.27
#  52   -0.75   -0.84    0.78    1.44   -0.08    0.00    0.00       0.55    3.75   -0.22
#  53   -0.26   -0.15    0.01    0.35   -0.03    0.00    0.00      -0.09    2.36   -0.22
#  54   -0.39   -0.54    0.42    0.38   -0.06    0.00    0.00      -0.19    1.58   -0.26
#  55   -1.46   -0.11    0.01    0.26   -0.03    0.00    0.00      -1.33    2.21   -0.27
#  56   -0.82   -0.05    0.00    0.07   -0.01    0.00    0.00      -0.81    1.31   -0.27
#  57   -0.65   -0.23    0.10    0.33   -0.04    0.00    0.00      -0.49    2.24   -0.28
#  58   -0.73   -0.74    0.90    0.46   -0.07    0.00    0.00      -0.18    1.88   -0.28
#  59   -4.32   -1.03    1.17    2.73   -0.12    0.00    0.00      -1.57    6.36   -0.28
#  60   -5.32   -0.65    0.47    1.71   -0.11    0.00    0.00      -3.90    4.37   -0.28
#  61   -2.96   -0.25    0.03    1.88   -0.08    0.00    0.00      -1.37    6.81   -0.28
#  62   -4.75   -0.48    0.13    1.77   -0.11    0.00    0.00      -3.44    4.44   -0.28
#  63   -3.49   -0.31    0.10    0.62   -0.05    0.00    0.00      -3.14    2.61   -0.23
#  64   -0.96   -0.07    0.00    0.16   -0.02    0.00    0.00      -0.89    2.46   -0.28
#  65   -0.28   -0.02    0.00    0.05   -0.01    0.00    0.00      -0.25    1.87   -0.27
#  66   -0.07   -0.02    0.00    0.05   -0.01    0.00    0.00      -0.05    1.86   -0.28
#  67    0.04   -0.43    0.63    0.51   -0.04    0.00    0.00       0.70    3.33   -0.28
#  68   -0.14   -0.16    0.03    1.02   -0.03    0.00    0.00       0.72    7.71   -0.21
#  69   -1.83   -0.16    0.01    1.26   -0.04    0.00    0.00      -0.77    7.87   -0.26
#  70   -3.50   -0.16    0.01    1.28   -0.04    0.00    0.00      -2.42    7.93   -0.26

@<TRIPOS>MOLECULE
          T536309        77
   70    74     0     0     0



@<TRIPOS>ATOM
      1 Cl1         8.9018   -11.9872    98.1425 Cl         1          -0.0211
      2 C1          7.9856   -10.7270    97.3769 C.ar       1          -0.0010
      3 C2          8.0063    -9.4444    97.8993 C.ar       1          -0.1007
      4 C3          7.2807    -8.4392    97.2957 C.ar       1          -0.0361
      5 C4          6.5241    -8.7155    96.1552 C.ar       1          -0.1352
      6 C5          6.5069   -10.0096    95.6322 C.ar       1          -0.0669
      7 C6          7.2410   -11.0069    96.2420 C.ar       1          -0.0423
      8 Cl2         7.2265   -12.6157    95.5899 Cl         1          -0.0294
      9 C7          5.7442    -7.6421    95.5045 C.2        1           0.5767
     10 O1          5.4987    -7.7043    94.3156 O.2        1          -0.5101
     11 N1          5.3051    -6.5940    96.2294 N.am       1          -0.7268
     12 C8          4.5319    -5.5298    95.5844 C.3        1           0.1360
     13 C9          5.3309    -4.9114    94.4434 C.3        1          -0.1592
     14 C10         4.4731    -5.1267    93.1975 C.3        1          -0.0046
     15 N2          3.6849    -6.3388    93.5161 N.4        1          -0.3886
     16 H1          4.2573    -7.1663    93.4416 H          1           0.4264
     17 C11         2.5104    -6.4398    92.6398 C.3        1           0.0487
     18 C12         2.9604    -6.5154    91.2034 C.ar       1          -0.1985
     19 C13         3.1253    -5.3747    90.4782 C.ar       1          -0.0157
     20 C14         3.5400    -5.4217    89.1503 C.ar       1          -0.2442
     21 C15         3.7936    -6.6157    88.5356 C.ar       1           0.1945
     22 O2          4.1975    -6.6450    87.2393 O.3        1          -0.2894
     23 C16         5.4159    -5.9682    86.9240 C.3        1           0.0595
     24 C17         6.5638    -6.5840    87.7266 C.3        1           0.0533
     25 N3          7.8163    -5.8882    87.4026 N.3        1          -0.5363
     26 C18         8.3306    -6.3120    86.0925 C.3        1           0.0244
     27 C19         9.6003    -5.5226    85.7666 C.3        1          -0.0028
     28 N4         10.6075    -5.7633    86.8082 N.4        1          -0.5090
     29 H2         10.8154    -6.7497    86.8535 H          1           0.4277
     30 H3         11.4489    -5.2523    86.5867 H          1           0.4370
     31 C20        10.0891    -5.3124    88.1065 C.3        1          -0.0018
     32 C21         8.8234    -6.1001    88.4518 C.3        1           0.0183
     33 C22         3.6333    -7.8164    89.2563 C.ar       1          -0.0775
     34 C23         3.8842    -9.0632    88.6613 C.ar       1          -0.0654
     35 C24         3.7192   -10.2022    89.3884 C.ar       1          -0.1257
     36 C25         3.3040   -10.1507    90.7177 C.ar       1          -0.0646
     37 C26         3.0517    -8.9603    91.3272 C.ar       1          -0.1587
     38 C27         3.2168    -7.7630    90.6097 C.ar       1           0.0052
     39 C28         3.2759    -6.1089    94.9239 C.3        1          -0.0242
     40 H4          8.5917    -9.2312    98.7815 H          1           0.1579
     41 H5          7.2973    -7.4398    97.7048 H          1           0.1559
     42 H6          5.9235   -10.2292    94.7503 H          1           0.1413
     43 H7          5.5009    -6.5444    97.1780 H          1           0.4076
     44 H8          4.2594    -4.7660    96.3126 H          1           0.1314
     45 H9          5.4829    -3.8466    94.6202 H          1           0.1249
     46 H10         6.2909    -5.4161    94.3352 H          1           0.1038
     47 H11         3.8143    -4.2738    93.0345 H          1           0.1348
     48 H12         5.1029    -5.2986    92.3245 H          1           0.1361
     49 H13         1.9456    -7.3375    92.8913 H          1           0.1374
     50 H14         1.8783    -5.5626    92.7767 H          1           0.1391
     51 H15         2.9307    -4.4183    90.9405 H          1           0.1347
     52 H16         3.6627    -4.5017    88.5981 H          1           0.1373
     53 H17         5.6224    -6.0690    85.8585 H          1           0.0705
     54 H18         5.3210    -4.9123    87.1774 H          1           0.0820
     55 H19         6.3573    -6.4831    88.7920 H          1           0.0782
     56 H20         6.6587    -7.6400    87.4732 H          1           0.1027
     57 H21         8.5612    -7.3771    86.1195 H          1           0.0647
     58 H22         7.5777    -6.1219    85.3274 H          1           0.1259
     59 H23         9.9912    -5.8456    84.8018 H          1           0.1416
     60 H24         9.3664    -4.4588    85.7261 H          1           0.1398
     61 H25        10.8424    -5.4796    88.8764 H          1           0.1402
     62 H26         9.8527    -4.2498    88.0542 H          1           0.1390
     63 H27         8.4301    -5.7553    89.4082 H          1           0.1196
     64 H28         9.0621    -7.1616    88.5178 H          1           0.0656
     65 H29         4.2061    -9.1183    87.6319 H          1           0.1381
     66 H30         3.9124   -11.1599    88.9281 H          1           0.1350
     67 H31         3.1803   -11.0691    91.2724 H          1           0.1352
     68 H32         2.7303    -8.9354    92.3580 H          1           0.1237
     69 H33         2.9933    -7.0487    95.3981 H          1           0.1375
     70 H34         2.4547    -5.3937    94.9714 H          1           0.1465
@<TRIPOS>BOND
     1    1    2 1
     2    2    7 ar
     3    2    3 ar
     4    3    4 ar
     5    3   40 1
     6    4    5 ar
     7    4   41 1
     8    5    6 ar
     9    5    9 1
    10    6    7 ar
    11    6   42 1
    12    7    8 1
    13    9   10 2
    14    9   11 am
    15   11   12 1
    16   11   43 1
    17   12   39 1
    18   12   13 1
    19   12   44 1
    20   13   14 1
    21   13   45 1
    22   13   46 1
    23   14   15 1
    24   14   47 1
    25   14   48 1
    26   15   16 1
    27   15   17 1
    28   15   39 1
    29   17   18 1
    30   17   49 1
    31   17   50 1
    32   18   38 ar
    33   18   19 ar
    34   19   20 ar
    35   19   51 1
    36   20   21 ar
    37   20   52 1
    38   21   22 1
    39   21   33 ar
    40   22   23 1
    41   23   24 1
    42   23   53 1
    43   23   54 1
    44   24   25 1
    45   24   55 1
    46   24   56 1
    47   25   32 1
    48   25   26 1
    49   26   27 1
    50   26   57 1
    51   26   58 1
    52   27   28 1
    53   27   59 1
    54   27   60 1
    55   28   29 1
    56   28   30 1
    57   28   31 1
    58   31   32 1
    59   31   61 1
    60   31   62 1
    61   32   63 1
    62   32   64 1
    63   33   38 ar
    64   33   34 ar
    65   34   35 ar
    66   34   65 1
    67   35   36 ar
    68   35   66 1
    69   36   37 ar
    70   36   67 1
    71   37   38 ar
    72   37   68 1
    73   39   69 1
    74   39   70 1
##########                 Name:              T537558
##########          Protonation:                   47
##########               SMILES:   Cc1cc(c2ccccc2n1)OCCC[NH+]3CC[C@@H](C3)NS(=O)(=O)c4ccc(c(c4)Cl)Cl
##########            Long Name:   [3-[(2-methyl-4-quinolyl)oxy]propyl]pyrrolidin-1-ium-3-yl]benzenesulfonamide
##########          FlexRecCode: 1
##########               Number:                   95
##########   Ligand Source File: /raidb/db2/rgc/tcams/tcams-0001637.db2.gz
##########           GlobalRank: 497
##########                 Rank:                    1
##########               Setnum:                  317
##########             Matchnum:                 5191
##########                Cloud:                    1
##########        Electrostatic:           -41.394958
##########        Van der Waals:           -26.820707
##########  Ligand Polar Desolv:             8.694050
########## Ligand Apolar Desolv:            -3.975324
##########      Internal Energy:             0.000000
##########      Receptor Energy: 0.0
########## Receptor Desolvation:             0.000000
########## Receptor Hydrophobic:             0.000000
##########         Total Energy: -63.5
##########        Ligand Charge:             1.000000
##########            Arbitrary:    +999.9990
##########     heavy atom count:   32
##########           pose count:    1
##########        Ligand Energy:             0.000000
# num electro vdwattr vdwrepu polsolv apolsol rdesolv rhydroe totalscore fullpol fullapo
#   1    2.49   -3.16    3.16   -0.63   -0.12    0.00    0.00       1.74   -1.04   -0.20
#   2   -2.85   -2.15    0.73    0.57   -0.40    0.00    0.00      -4.09    1.08   -0.75
#   3    4.00   -1.81    0.31   -1.71   -0.21    0.00    0.00       0.57   -3.27   -0.41
#   4   -1.98   -1.36    0.15    0.93   -0.13    0.00    0.00      -2.40    2.38   -0.32
#   5    3.80   -0.90    0.05   -1.98    0.31    0.00    0.00       1.27   -5.19    0.81
#   6   -1.25   -0.94    0.14    0.13   -0.04    0.00    0.00      -1.95    0.32   -0.09
#   7    4.39   -0.81    0.10   -1.66   -0.09    0.00    0.00       1.93   -4.33   -0.24
#   8    0.02   -0.65    0.10    0.20   -0.09    0.00    0.00      -0.43    0.74   -0.35
#   9   12.96   -1.17    0.70   -3.31    0.10    0.00    0.00       9.28  -13.44    0.42
#  10  -22.47   -0.09    0.02    4.76    0.15    0.00    0.00     -17.64   18.13    0.56
#  11    0.16   -0.38    0.02    0.06   -0.08    0.00    0.00      -0.23    0.27   -0.40
#  12    2.69   -0.37    0.02   -1.07   -0.06    0.00    0.00       1.22   -5.27   -0.28
#  13   -2.47   -0.38    0.03    0.58   -0.07    0.00    0.00      -2.32    2.84   -0.36
#  14    0.31   -0.54    0.11    0.06   -0.09    0.00    0.00      -0.16    0.30   -0.44
#  15    8.76   -0.22    0.00   -2.50    0.09    0.00    0.00       6.14  -26.09    0.96
#  16  -17.80   -0.27    0.00    2.92   -0.01    0.00    0.00     -15.16   44.22   -0.21
#  17    9.20   -0.16    0.00   -0.78    0.11    0.00    0.00       8.38  -10.50    1.48
#  18    2.33   -0.08    0.00   -0.63    0.07    0.00    0.00       1.70  -13.32    1.47
#  19    4.09   -0.39    0.01   -1.58   -0.04    0.00    0.00       2.09  -10.46   -0.27
#  20    0.20   -0.76    0.07    0.07   -0.10    0.00    0.00      -0.52    0.29   -0.42
#  21    1.60   -1.60    0.54   -0.60   -0.16    0.00    0.00      -0.22   -1.71   -0.46
#  22   -0.10   -1.70    0.40   -0.04   -0.11    0.00    0.00      -1.55   -0.11   -0.30
#  23    0.09   -4.86    2.34   -0.33   -0.48    0.00    0.00      -3.25   -0.65   -0.95
#  24    0.19   -1.06    0.13   -0.27   -0.09    0.00    0.00      -1.10   -0.91   -0.30
#  25    0.06   -2.65    0.45   -0.27   -0.39    0.00    0.00      -2.81   -0.67   -0.95
#  26   -0.01   -0.49    0.02   -0.02   -0.08    0.00    0.00      -0.57   -0.13   -0.44
#  27    0.80   -1.33    0.15   -0.43   -0.14    0.00    0.00      -0.95   -1.20   -0.40
#  28    0.20   -1.79    0.68   -0.19   -0.15    0.00    0.00      -1.24   -0.59   -0.45
#  29    0.23   -2.10    0.95   -0.41   -0.16    0.00    0.00      -1.49   -1.23   -0.47
#  30    0.69   -1.75    0.43   -0.20   -0.19    0.00    0.00      -1.02   -0.49   -0.47
#  31    0.85   -1.36    0.11   -0.27   -0.22    0.00    0.00      -0.90   -0.56   -0.46
#  32   -1.26   -1.30    0.13    0.07   -0.32    0.00    0.00      -2.68    0.16   -0.73
#  33    4.97   -1.63    0.30   -0.67    0.96    0.00    0.00       3.93   -1.31    1.89
#  34   -2.52   -1.58    3.28    0.59   -0.17    0.00    0.00      -0.40    0.97   -0.28
#  35   -1.81   -1.63    3.81    1.16   -0.17    0.00    0.00       1.35    1.91   -0.28
#  36   -1.53   -0.93    1.36    0.13   -0.16    0.00    0.00      -1.13    0.23   -0.28
#  37   -2.39   -0.38    0.04    1.96   -0.11    0.00    0.00      -0.87    4.01   -0.22
#  38   -1.53   -0.61    0.82    0.83   -0.09    0.00    0.00      -0.58    2.45   -0.26
#  39   -1.72   -0.49    0.19    0.82   -0.09    0.00    0.00      -1.29    2.43   -0.26
#  40   -2.62   -0.18    0.01    0.55   -0.04    0.00    0.00      -2.28    3.25   -0.24
#  41   -4.21   -0.47    0.26    1.31   -0.11    0.00    0.00      -3.22    3.33   -0.28
#  42   -3.77   -0.32    0.10    1.51   -0.06    0.00    0.00      -2.55    6.50   -0.28
#  43   -1.92   -0.13    0.01    0.69   -0.03    0.00    0.00      -1.38    6.07   -0.27
#  44   -1.43   -0.10    0.01    0.50   -0.02    0.00    0.00      -1.05    5.34   -0.26
#  45   -3.29   -0.12    0.00    0.65   -0.03    0.00    0.00      -2.78    5.42   -0.26
#  46   -1.05   -0.06    0.00    0.09   -0.01    0.00    0.00      -1.03    1.81   -0.27
#  47   -2.10   -0.23    0.04    0.59   -0.06    0.00    0.00      -1.75    2.99   -0.28
#  48   -2.83   -0.22    0.03    0.92   -0.05    0.00    0.00      -2.15    4.37   -0.25
#  49   -4.81   -0.29    0.10    1.44   -0.06    0.00    0.00      -3.62    7.11   -0.28
#  50   -2.28   -0.07    0.00    0.43   -0.02    0.00    0.00      -1.94    6.37   -0.27
#  51   -1.86    0.00    0.00    0.42    0.02    0.00    0.00      -1.42   11.90    0.66
#  52   -3.50   -0.14    0.01    0.73   -0.04    0.00    0.00      -2.95    4.85   -0.27
#  53   -4.90   -0.41    0.12    1.09   -0.09    0.00    0.00      -4.19    3.35   -0.28
#  54   -0.36   -0.05    0.00    0.10   -0.01    0.00    0.00      -0.32    2.13   -0.27
#  55   -0.20   -0.37    0.18    0.46   -0.06    0.00    0.00       0.03    2.24   -0.27
#  56   -0.01   -0.56    0.47    0.46   -0.07    0.00    0.00       0.30    1.89   -0.28
#  57   -2.25   -0.60    0.44    0.42   -0.10    0.00    0.00      -2.10    1.22   -0.28
#  58   -1.37   -0.32    0.03    0.05   -0.12    0.00    0.00      -1.73    0.11   -0.28

@<TRIPOS>MOLECULE
          T537558        47
   58    61     0     0     0



@<TRIPOS>ATOM
      1 C1          9.3520    -9.3046    99.9295 C.3        1          -0.1109
      2 C2          8.5885    -9.5669    98.6569 C.ar       1           0.1939
      3 C3          7.7335    -8.5866    98.1678 C.ar       1          -0.2738
      4 C4          7.0268    -8.8133    97.0008 C.ar       1           0.1870
      5 O1          6.1858    -7.8754    96.4996 O.3        1          -0.3013
      6 C5          6.7545    -6.6093    96.1594 C.3        1           0.0595
      7 C6          5.9662    -5.9902    95.0036 C.3        1          -0.1497
      8 C7          6.0268    -6.9193    93.7896 C.3        1          -0.0006
      9 N1          5.2699    -6.3247    92.6796 N.4        1          -0.3948
     10 H1          5.4284    -5.3292    92.6378 H          1           0.4324
     11 C8          3.8202    -6.6145    92.8254 C.3        1          -0.0080
     12 C9          3.2470    -6.4580    91.4005 C.3        1          -0.1670
     13 C10         4.4462    -6.6901    90.4583 C.3        1           0.1353
     14 C11         5.6454    -6.9652    91.3928 C.3        1          -0.0121
     15 N2          4.1975    -7.8462    89.5935 N.pl3      1          -1.1094
     16 S1          5.3580    -8.3434    88.5221 S.o2       1           2.6934
     17 O2          6.5483    -8.5376    89.2735 O.2        1          -0.9290
     18 O3          4.7735    -9.3764    87.7406 O.2        1          -0.9324
     19 C12         5.6674    -6.9977    87.4275 C.ar       1          -0.6772
     20 C13         6.6462    -6.0701    87.7326 C.ar       1          -0.0141
     21 C14         6.8899    -5.0141    86.8748 C.ar       1          -0.1159
     22 C15         6.1547    -4.8851    85.7101 C.ar       1           0.0229
     23 Cl1         6.4607    -3.5591    84.6321 Cl         1          -0.0161
     24 C16         5.1749    -5.8142    85.4044 C.ar       1          -0.0541
     25 Cl2         4.2519    -5.6542    83.9428 Cl         1          -0.0208
     26 C17         4.9356    -6.8734    86.2617 C.ar       1           0.0036
     27 C18         7.2089   -10.0532    96.3465 C.ar       1          -0.1245
     28 C19         6.5290   -10.3584    95.1586 C.ar       1          -0.0823
     29 C20         6.7315   -11.5639    94.5575 C.ar       1          -0.1222
     30 C21         7.6055   -12.4983    95.1083 C.ar       1          -0.0835
     31 C22         8.2810   -12.2339    96.2599 C.ar       1          -0.1012
     32 C23         8.0983   -11.0003    96.9086 C.ar       1           0.1652
     33 N3          8.7537   -10.7123    98.0386 N.ar       1          -0.4917
     34 H2          9.0985    -8.3142   100.3077 H          1           0.0850
     35 H3          9.0876   -10.0561   100.6733 H          1           0.0761
     36 H4         10.4221    -9.3536    99.7279 H          1           0.0849
     37 H5          7.6211    -7.6519    98.6970 H          1           0.1384
     38 H6          6.7112    -5.9474    97.0244 H          1           0.0776
     39 H7          7.7931    -6.7467    95.8585 H          1           0.0774
     40 H8          4.9277    -5.8528    95.3046 H          1           0.1010
     41 H9          6.4000    -5.0244    94.7441 H          1           0.1013
     42 H10         7.0654    -7.0566    93.4886 H          1           0.1369
     43 H11         5.5929    -7.8849    94.0490 H          1           0.1359
     44 H12         3.6702    -7.6322    93.1858 H          1           0.1374
     45 H13         3.3556    -5.8981    93.5029 H          1           0.1413
     46 H14         2.4735    -7.2042    91.2196 H          1           0.1264
     47 H15         2.8456    -5.4541    91.2622 H          1           0.1166
     48 H16         4.6334    -5.8001    89.8574 H          1           0.1236
     49 H17         6.5529    -6.5124    90.9934 H          1           0.1477
     50 H18         5.7825    -8.0381    91.5279 H          1           0.1446
     51 H19         3.3531    -8.3203    89.6485 H          1           0.4284
     52 H20         7.2203    -6.1704    88.6418 H          1           0.1569
     53 H21         7.6542    -4.2893    87.1141 H          1           0.1582
     54 H22         4.1743    -7.6009    86.0219 H          1           0.1624
     55 H23         5.8485    -9.6418    94.7230 H          1           0.1307
     56 H24         6.2075   -11.7983    93.6427 H          1           0.1320
     57 H25         7.7490   -13.4477    94.6139 H          1           0.1362
     58 H26         8.9548   -12.9693    96.6741 H          1           0.1425
@<TRIPOS>BOND
     1    1    2 1
     2    1   34 1
     3    1   35 1
     4    1   36 1
     5    2   33 ar
     6    2    3 ar
     7    3    4 ar
     8    3   37 1
     9    4    5 1
    10    4   27 ar
    11    5    6 1
    12    6    7 1
    13    6   38 1
    14    6   39 1
    15    7    8 1
    16    7   40 1
    17    7   41 1
    18    8    9 1
    19    8   42 1
    20    8   43 1
    21    9   10 1
    22    9   14 1
    23    9   11 1
    24   11   12 1
    25   11   44 1
    26   11   45 1
    27   12   13 1
    28   12   46 1
    29   12   47 1
    30   13   14 1
    31   13   15 1
    32   13   48 1
    33   14   49 1
    34   14   50 1
    35   15   16 1
    36   15   51 1
    37   16   17 2
    38   16   18 2
    39   16   19 1
    40   19   26 ar
    41   19   20 ar
    42   20   21 ar
    43   20   52 1
    44   21   22 ar
    45   21   53 1
    46   22   23 1
    47   22   24 ar
    48   24   25 1
    49   24   26 ar
    50   26   54 1
    51   27   32 ar
    52   27   28 ar
    53   28   29 ar
    54   28   55 1
    55   29   30 ar
    56   29   56 1
    57   30   31 ar
    58   30   57 1
    59   31   32 ar
    60   31   58 1
    61   32   33 ar
##########                 Name:              T537780
##########          Protonation:                   98
##########               SMILES:   C[C@@H](COc1ccc2c(c1)OC(C[C@H]2c3ccccc3)(C)C)[NH2+]C[C@@H](c4cccc(c4)Cl)O
##########            Long Name:   [(1S)-2-[(4S)-2,2-dimethyl-4-phenyl-chroman-7-yl]oxy-1-methyl-ethyl]ammonium
##########          FlexRecCode: 1
##########               Number:                  266
##########   Ligand Source File: /raidb/db2/rgc/tcams/tcams-0001786.db2.gz
##########           GlobalRank: 497
##########                 Rank:                    1
##########               Setnum:                  298
##########             Matchnum:                 2183
##########                Cloud:                    1
##########        Electrostatic:           -35.201073
##########        Van der Waals:           -29.141325
##########  Ligand Polar Desolv:             4.225142
########## Ligand Apolar Desolv:            -3.383785
##########      Internal Energy:             0.000000
##########      Receptor Energy: 0.0
########## Receptor Desolvation:             0.000000
########## Receptor Hydrophobic:             0.000000
##########         Total Energy: -63.5
##########        Ligand Charge:             1.000000
##########            Arbitrary:    +999.9990
##########     heavy atom count:   33
##########           pose count:    1
##########        Ligand Energy:             0.000000
# num electro vdwattr vdwrepu polsolv apolsol rdesolv rhydroe totalscore fullpol fullapo
#   1    5.53   -0.94    0.09   -2.29   -0.07    0.00    0.00       2.31   -5.54   -0.17
#   2   -0.86   -0.47    0.02    0.73   -0.07    0.00    0.00      -0.66    2.81   -0.28
#   3   -0.70   -0.51    0.04   -0.04   -0.02    0.00    0.00      -1.23   -0.15   -0.08
#   4    4.49   -0.34    0.01   -1.15    0.14    0.00    0.00       3.14   -6.67    0.78
#   5   -1.28   -0.37    0.01    0.45   -0.05    0.00    0.00      -1.23    3.06   -0.31
#   6    1.36   -0.22    0.00   -0.31   -0.04    0.00    0.00       0.80   -3.44   -0.42
#   7    0.07   -0.19    0.00   -0.05   -0.03    0.00    0.00      -0.21   -0.65   -0.42
#   8    0.26   -0.33    0.01   -0.24   -0.04    0.00    0.00      -0.34   -1.78   -0.31
#   9    0.00   -0.28    0.01    0.01   -0.02    0.00    0.00      -0.28    0.05   -0.13
#  10    0.14   -0.74    0.11   -0.31   -0.06    0.00    0.00      -0.87   -0.97   -0.18
#  11   -0.10   -0.55    0.03    0.28   -0.02    0.00    0.00      -0.36    0.81   -0.07
#  12    0.04   -1.32    0.29   -0.55   -0.09    0.00    0.00      -1.64   -1.07   -0.18
#  13    0.19   -0.35    0.02   -0.29   -0.04    0.00    0.00      -0.47   -1.30   -0.17
#  14    0.36   -0.82    0.13   -0.58    0.24    0.00    0.00      -0.67   -2.04    0.85
#  15   -0.29   -0.61    0.08    0.19   -0.05    0.00    0.00      -0.69    0.99   -0.29
#  16    0.77   -0.65    0.12   -0.45   -0.09    0.00    0.00      -0.29   -2.41   -0.46
#  17    0.13   -0.51    0.03   -0.09   -0.04    0.00    0.00      -0.48   -0.50   -0.25
#  18    0.16   -0.56    0.06   -0.14   -0.07    0.00    0.00      -0.54   -0.84   -0.40
#  19    0.21   -0.64    0.04   -0.24   -0.12    0.00    0.00      -0.74   -0.96   -0.47
#  20    0.30   -0.98    0.16   -0.30   -0.14    0.00    0.00      -0.96   -1.02   -0.47
#  21    0.33   -0.77    0.07   -0.24   -0.12    0.00    0.00      -0.73   -0.96   -0.47
#  22    0.26   -0.67    0.07   -0.20   -0.09    0.00    0.00      -0.64   -0.98   -0.45
#  23   14.62   -0.83    0.18   -4.38    0.16    0.00    0.00       9.75  -16.75    0.63
#  24  -10.69   -0.01    0.00    1.99    0.06    0.00    0.00      -8.64   16.71    0.53
#  25  -19.33   -0.05    0.00    3.38    0.12    0.00    0.00     -15.87   14.92    0.54
#  26    0.95   -0.55    0.03   -0.21   -0.11    0.00    0.00       0.11   -0.68   -0.36
#  27   -2.92   -1.11    0.38    1.38   -0.05    0.00    0.00      -2.33    4.00   -0.15
#  28   11.19   -1.82    1.04   -4.35    0.46    0.00    0.00       6.52  -15.13    1.61
#  29    1.84   -1.59    0.44   -0.67   -0.12    0.00    0.00      -0.11   -1.92   -0.34
#  30    1.66   -1.82    0.39   -0.86   -0.21    0.00    0.00      -0.85   -1.83   -0.44
#  31    1.47   -1.81    0.29   -1.02   -0.25    0.00    0.00      -1.32   -1.91   -0.47
#  32    0.94   -1.85    0.66   -0.79   -0.21    0.00    0.00      -1.25   -1.76   -0.46
#  33    0.23   -1.29    0.13   -0.36   -0.11    0.00    0.00      -1.41   -0.95   -0.29
#  34    0.31   -3.14    0.69   -0.50   -0.46    0.00    0.00      -3.11   -1.06   -0.98
#  35    0.80   -1.23    0.18   -0.58   -0.14    0.00    0.00      -0.97   -1.80   -0.44
#  36   -2.65   -0.34    0.05    0.42   -0.07    0.00    0.00      -2.61    1.47   -0.26
#  37   -4.15   -0.42    0.06    0.69   -0.12    0.00    0.00      -3.93    1.66   -0.28
#  38   -2.25   -0.29    0.04    0.86   -0.06    0.00    0.00      -1.71    3.21   -0.21
#  39   -2.48   -0.12    0.00    0.83   -0.03    0.00    0.00      -1.79    8.20   -0.28
#  40   -1.58   -0.13    0.01    0.54   -0.04    0.00    0.00      -1.20    3.99   -0.26
#  41   -3.58   -0.33    0.07    0.71   -0.07    0.00    0.00      -3.21    2.67   -0.26
#  42   -0.82   -0.03    0.00    0.13   -0.01    0.00    0.00      -0.73    3.77   -0.22
#  43   -0.20   -0.02    0.00    0.04   -0.01    0.00    0.00      -0.19    1.23   -0.26
#  44   -0.11   -0.05    0.00    0.03   -0.01    0.00    0.00      -0.13    0.73   -0.23
#  45   -0.07   -0.54    0.38    0.11   -0.08    0.00    0.00      -0.20    0.35   -0.24
#  46   -0.08   -0.35    0.11    0.20   -0.08    0.00    0.00      -0.20    0.72   -0.28
#  47   -0.01   -0.84    1.23    0.35   -0.11    0.00    0.00       0.62    0.89   -0.28
#  48    0.00   -0.53    0.14    0.22   -0.14    0.00    0.00      -0.30    0.45   -0.28
#  49    0.00   -0.51    0.18    0.20   -0.14    0.00    0.00      -0.28    0.40   -0.28
#  50   -0.08   -0.12    0.01    0.07   -0.03    0.00    0.00      -0.16    0.43   -0.21
#  51   -0.06   -0.16    0.02    0.06   -0.04    0.00    0.00      -0.18    0.40   -0.28
#  52   -0.09   -0.05    0.00    0.04   -0.01    0.00    0.00      -0.11    0.80   -0.28
#  53   -0.92   -0.19    0.06    0.22   -0.04    0.00    0.00      -0.87    1.49   -0.28
#  54   -0.15   -0.10    0.01    0.08   -0.02    0.00    0.00      -0.18    0.83   -0.27
#  55   -0.19   -0.13    0.00    0.17   -0.04    0.00    0.00      -0.19    1.21   -0.28
#  56   -0.38   -0.55    0.43    0.29   -0.07    0.00    0.00      -0.28    1.11   -0.28
#  57   -0.47   -0.19    0.02    0.20   -0.05    0.00    0.00      -0.49    1.14   -0.28
#  58   -0.31   -0.18    0.03    0.18   -0.04    0.00    0.00      -0.32    1.22   -0.28
#  59   -3.31   -0.21    0.02    1.00   -0.04    0.00    0.00      -2.54    5.22   -0.23
#  60   -1.45   -0.18    0.02    1.03   -0.04    0.00    0.00      -0.62    6.88   -0.28
#  61   -3.71   -0.57    0.33    1.49   -0.11    0.00    0.00      -2.57    3.83   -0.28
#  62  -10.90   -0.02    0.00    2.97    0.24    0.00    0.00      -7.71   12.38    1.00
#  63   -2.39   -0.45    0.11    1.98   -0.09    0.00    0.00      -0.84    5.16   -0.23
#  64   -2.95   -0.47    0.09    1.14   -0.15    0.00    0.00      -2.34    2.19   -0.28
#  65   -1.36   -0.49    0.32    0.28   -0.10    0.00    0.00      -1.36    0.76   -0.28
#  66   -0.92   -0.19    0.02    0.50   -0.05    0.00    0.00      -0.64    2.94   -0.28

@<TRIPOS>MOLECULE
          T537780        98
   66    69     0     0     0



@<TRIPOS>ATOM
      1 C1          3.5553    -4.6658    94.7821 C.3        1          -0.1845
      2 C2          3.7334    -5.9669    93.9969 C.3        1           0.0357
      3 C3          3.1349    -5.8045    92.5982 C.3        1           0.0317
      4 O1          3.3011    -7.0197    91.8650 O.3        1          -0.3232
      5 C4          2.8207    -7.0439    90.5940 C.ar       1           0.1481
      6 C5          3.4243    -7.8483    89.6374 C.ar       1          -0.2364
      7 C6          2.9325    -7.8721    88.3481 C.ar       1          -0.0312
      8 C7          1.8379    -7.0969    88.0011 C.ar       1          -0.1707
      9 C8          1.3256    -7.1601    86.5842 C.3        1          -0.0030
     10 C9          0.4361    -5.9466    86.3029 C.3        1          -0.1416
     11 C10        -0.5638    -5.8038    87.4575 C.3        1           0.1153
     12 C11        -1.5408    -4.6659    87.1552 C.3        1          -0.1418
     13 C12        -1.3360    -7.1127    87.6350 C.3        1          -0.1788
     14 O2          0.1645    -5.5086    88.6501 O.3        1          -0.3026
     15 C13         1.2345    -6.2900    88.9503 C.ar       1           0.1853
     16 C14         1.7244    -6.2708    90.2516 C.ar       1          -0.1801
     17 C15         2.4913    -7.1596    85.6291 C.ar       1          -0.0787
     18 C16         2.3861    -7.8025    84.4099 C.ar       1          -0.1083
     19 C17         3.4553    -7.8020    83.5338 C.ar       1          -0.1175
     20 C18         4.6295    -7.1582    83.8765 C.ar       1          -0.1180
     21 C19         4.7344    -6.5145    85.0953 C.ar       1          -0.1155
     22 C20         3.6637    -6.5113    85.9698 C.ar       1          -0.1155
     23 N1          5.1645    -6.2788    93.8839 N.4        1          -0.5041
     24 H1          5.3095    -6.9199    93.1184 H          1           0.4314
     25 H2          5.6815    -5.4292    93.7137 H          1           0.4345
     26 C21         5.6317    -6.8942    95.1333 C.3        1          -0.0468
     27 C22         7.1221    -7.2190    95.0157 C.3        1           0.1370
     28 O3          7.3981    -7.7225    93.7071 O.3        1          -0.5449
     29 C23         7.4923    -8.2583    96.0422 C.ar       1          -0.1298
     30 C24         7.9131    -7.8681    97.3001 C.ar       1          -0.1035
     31 C25         8.2525    -8.8207    98.2424 C.ar       1          -0.0964
     32 C26         8.1717   -10.1643    97.9275 C.ar       1          -0.0913
     33 C27         7.7507   -10.5553    96.6691 C.ar       1          -0.0312
     34 Cl1         7.6484   -12.2424    96.2730 Cl         1          -0.0476
     35 C28         7.4057    -9.6013    95.7280 C.ar       1          -0.0946
     36 H3          3.9818    -4.7815    95.7785 H          1           0.0931
     37 H4          4.0639    -3.8546    94.2612 H          1           0.1081
     38 H5          2.4935    -4.4345    94.8660 H          1           0.0836
     39 H6          3.2248    -6.7781    94.5178 H          1           0.1566
     40 H7          2.0729    -5.5732    92.6822 H          1           0.0887
     41 H8          3.6434    -4.9933    92.0774 H          1           0.1113
     42 H9          4.2781    -8.4546    89.9015 H          1           0.1275
     43 H10         3.4039    -8.4984    87.6051 H          1           0.1313
     44 H11         0.7466    -8.0735    86.4482 H          1           0.0950
     45 H12         1.0504    -5.0486    86.2357 H          1           0.0823
     46 H13        -0.1023    -6.0948    85.3667 H          1           0.0914
     47 H14        -2.2495    -4.5675    87.9775 H          1           0.0834
     48 H15        -0.9880    -3.7338    87.0386 H          1           0.0711
     49 H16        -2.0809    -4.8858    86.2344 H          1           0.0689
     50 H17        -2.0452    -7.0076    88.4560 H          1           0.0641
     51 H18        -1.8752    -7.3438    86.7164 H          1           0.0699
     52 H19        -0.6376    -7.9191    87.8590 H          1           0.0787
     53 H20         1.2511    -5.6477    90.9961 H          1           0.1393
     54 H21         1.4687    -8.3055    84.1420 H          1           0.1171
     55 H22         3.3734    -8.3050    82.5814 H          1           0.1223
     56 H23         5.4651    -7.1584    83.1923 H          1           0.1236
     57 H24         5.6519    -6.0118    85.3633 H          1           0.1247
     58 H25         3.7443    -6.0052    86.9203 H          1           0.1226
     59 H26         5.4748    -6.2017    95.9603 H          1           0.1479
     60 H27         5.0732    -7.8121    95.3171 H          1           0.1388
     61 H28         7.7057    -6.3146    95.1875 H          1           0.1346
     62 H29         7.1837    -7.1049    92.9948 H          1           0.3881
     63 H30         7.9771    -6.8185    97.5464 H          1           0.1297
     64 H31         8.5812    -8.5153    99.2248 H          1           0.1423
     65 H32         8.4375   -10.9086    98.6635 H          1           0.1433
     66 H33         7.0731    -9.9061    94.7468 H          1           0.1389
@<TRIPOS>BOND
     1    1    2 1
     2    1   36 1
     3    1   37 1
     4    1   38 1
     5    2    3 1
     6    2   23 1
     7    2   39 1
     8    3    4 1
     9    3   40 1
    10    3   41 1
    11    4    5 1
    12    5   16 ar
    13    5    6 ar
    14    6    7 ar
    15    6   42 1
    16    7    8 ar
    17    7   43 1
    18    8   15 ar
    19    8    9 1
    20    9   10 1
    21    9   17 1
    22    9   44 1
    23   10   11 1
    24   10   45 1
    25   10   46 1
    26   11   12 1
    27   11   13 1
    28   11   14 1
    29   12   47 1
    30   12   48 1
    31   12   49 1
    32   13   50 1
    33   13   51 1
    34   13   52 1
    35   14   15 1
    36   15   16 ar
    37   16   53 1
    38   17   22 ar
    39   17   18 ar
    40   18   19 ar
    41   18   54 1
    42   19   20 ar
    43   19   55 1
    44   20   21 ar
    45   20   56 1
    46   21   22 ar
    47   21   57 1
    48   22   58 1
    49   23   24 1
    50   23   25 1
    51   23   26 1
    52   26   27 1
    53   26   59 1
    54   26   60 1
    55   27   28 1
    56   27   29 1
    57   27   61 1
    58   28   62 1
    59   29   35 ar
    60   29   30 ar
    61   30   31 ar
    62   30   63 1
    63   31   32 ar
    64   31   64 1
    65   32   33 ar
    66   32   65 1
    67   33   34 1
    68   33   35 ar
    69   35   66 1
##########                 Name:              T534071
##########          Protonation:                   98
##########               SMILES:   c1cc(c(cc1Br)Cl)c2ccc(o2)C[NH2+]CC3CC[NH2+]CC3
##########            Long Name:   4-bromo-2-chloro-phenyl)-2-furyl]methyl-(piperidin-1-ium-4-ylmethyl)ammonium
##########          FlexRecCode: 1
##########               Number:                   52
##########   Ligand Source File: /raidb/db2/rgc/tcams/tcams-0001169.db2.gz
##########           GlobalRank: 498
##########                 Rank:                    1
##########               Setnum:                  268
##########             Matchnum:                  872
##########                Cloud:                    1
##########        Electrostatic:           -63.468872
##########        Van der Waals:           -28.306416
##########  Ligand Polar Desolv:            32.113819
########## Ligand Apolar Desolv:            -3.831928
##########      Internal Energy:             0.000000
##########      Receptor Energy: 0.0
########## Receptor Desolvation:             0.000000
########## Receptor Hydrophobic:             0.000000
##########         Total Energy: -63.49
##########        Ligand Charge:             2.000000
##########            Arbitrary:    +999.9990
##########     heavy atom count:   22
##########           pose count:    1
##########        Ligand Energy:             0.000000
# num electro vdwattr vdwrepu polsolv apolsol rdesolv rhydroe totalscore fullpol fullapo
#   1    0.35   -1.96    0.39   -0.24   -0.26    0.00    0.00      -1.72   -0.84   -0.94
#   2    0.07   -1.27    0.16   -0.25   -0.11    0.00    0.00      -1.39   -0.72   -0.30
#   3    0.60   -1.78    0.40    0.09   -0.17    0.00    0.00      -0.86    0.22   -0.40
#   4    1.20   -2.55    0.85   -0.63   -0.25    0.00    0.00      -1.38   -1.16   -0.46
#   5    1.47   -2.10    0.36   -0.84   -0.26    0.00    0.00      -1.36   -1.50   -0.46
#   6    0.71   -1.65    0.33   -0.67   -0.14    0.00    0.00      -1.41   -1.44   -0.30
#   7    0.04   -6.41    3.87   -0.58   -0.62    0.00    0.00      -3.70   -1.03   -1.10
#   8    0.71   -1.32    0.15   -0.58   -0.17    0.00    0.00      -1.21   -1.55   -0.45
#   9   -2.25   -1.93    0.51   -0.32   -0.13    0.00    0.00      -4.12   -0.72   -0.28
#  10    6.02   -3.62    1.86   -2.68   -0.28    0.00    0.00       1.30   -4.87   -0.50
#  11    5.21   -3.99    2.14   -3.29   -0.30    0.00    0.00      -0.23   -5.65   -0.51
#  12    4.43   -2.42    0.75   -0.42   -0.16    0.00    0.00       2.19   -0.82   -0.31
#  13   -3.56   -1.72    0.36    2.57   -0.22    0.00    0.00      -2.57    5.05   -0.44
#  14   21.13   -2.04    0.89  -10.32    0.32    0.00    0.00       9.98  -23.92    0.73
#  15  -14.96   -0.04    0.00    8.85    0.17    0.00    0.00      -5.97   23.61    0.46
#  16  -26.42   -0.13    0.03    8.98    0.23    0.00    0.00     -17.32   22.15    0.57
#  17    0.20   -0.58    0.05    0.01   -0.10    0.00    0.00      -0.42    0.03   -0.37
#  18    2.66   -0.46    0.01   -1.45   -0.04    0.00    0.00       0.73   -5.32   -0.15
#  19    1.33   -0.68    0.18   -2.08   -0.05    0.00    0.00      -1.31   -8.23   -0.21
#  20    0.07   -1.06    0.22   -0.12   -0.20    0.00    0.00      -1.09   -0.29   -0.47
#  21   12.32   -1.43    0.55   -9.75    0.37    0.00    0.00       2.06  -23.50    0.89
#  22   -6.89   -0.02    0.00    5.33    0.13    0.00    0.00      -1.44   22.49    0.56
#  23  -15.42   -0.07    0.01    9.50    0.25    0.00    0.00      -5.73   21.91    0.57
#  24    0.24   -1.10    0.41    0.02   -0.18    0.00    0.00      -0.61    0.05   -0.47
#  25    3.14   -0.57    0.03   -2.07   -0.07    0.00    0.00       0.46   -6.69   -0.22
#  26    3.76   -1.25    0.22   -2.10    0.11    0.00    0.00       0.74   -4.86    0.26
#  27   -3.05   -0.76    0.33    2.62   -0.15    0.00    0.00      -1.02    4.92   -0.28
#  28   -3.39   -0.57    0.13    1.52   -0.15    0.00    0.00      -2.45    2.84   -0.28
#  29   -0.85   -0.23    0.02    0.36   -0.07    0.00    0.00      -0.77    1.53   -0.28
#  30   -5.34   -1.88    4.91    1.95   -0.17    0.00    0.00      -0.53    3.12   -0.28
#  31   -8.06   -1.59    1.61    5.06   -0.18    0.00    0.00      -3.16    7.89   -0.28
#  32   -4.62   -0.51    0.12    2.65   -0.11    0.00    0.00      -2.47    6.98   -0.28
#  33   -6.50   -0.92    0.36    6.00   -0.16    0.00    0.00      -1.21   10.41   -0.28
#  34   -3.55   -0.13    0.01    0.95   -0.04    0.00    0.00      -2.76    6.82   -0.28
#  35   -3.90   -0.15    0.01    1.17   -0.04    0.00    0.00      -2.90    9.00   -0.28
#  36   -2.58   -0.17    0.01    0.95   -0.05    0.00    0.00      -1.84    5.81   -0.28
#  37   -0.68   -0.13    0.01    0.72   -0.03    0.00    0.00      -0.11    6.21   -0.28
#  38    0.09   -0.41    0.38    1.17   -0.04    0.00    0.00       1.18    6.32   -0.24
#  39   -0.93   -0.64    0.45    2.53   -0.12    0.00    0.00       1.30    6.07   -0.28
#  40   -2.20   -0.35    0.04    2.34   -0.11    0.00    0.00      -0.28    5.83   -0.28
#  41   -4.63   -0.38    0.12    1.57   -0.09    0.00    0.00      -3.41    5.05   -0.28
#  42   -4.57   -0.49    0.26    2.10   -0.11    0.00    0.00      -2.80    5.52   -0.28
#  43   -3.09   -0.29    0.03    0.88   -0.07    0.00    0.00      -2.54    3.32   -0.28
#  44   -1.80   -0.12    0.00    0.62   -0.03    0.00    0.00      -1.33    5.08   -0.28

@<TRIPOS>MOLECULE
          T534071        98
   44    46     0     0     0



@<TRIPOS>ATOM
      1 Cl1         6.3037    -8.7852    94.8067 Cl         1          -0.0394
      2 C1          7.2743    -8.7267    96.2448 C.ar       1          -0.0061
      3 C2          7.6213    -7.4952    96.8060 C.ar       1          -0.0353
      4 C3          8.4016    -7.4571    97.9625 C.ar       1          -0.0659
      5 C4          8.8255    -8.6340    98.5445 C.ar       1          -0.0832
      6 C5          8.4787    -9.8514    97.9841 C.ar       1          -0.0594
      7 Br1         9.0644   -11.4592    98.7891 Br         1          -0.0050
      8 C6          7.7005    -9.8971    96.8399 C.ar       1          -0.0810
      9 C7          7.1645    -6.2381    96.1774 C.2        1           0.0972
     10 C8          7.9647    -5.2525    95.6911 C.2        1          -0.1915
     11 C9          7.1126    -4.2494    95.1870 C.2        1          -0.1244
     12 C10         5.8480    -4.6680    95.3882 C.2        1          -0.1243
     13 C11         4.6012    -3.9135    95.0048 C.3        1           0.0952
     14 N1          4.2033    -4.2863    93.6406 N.4        1          -0.5147
     15 H1          3.3686    -3.7812    93.3838 H          1           0.4260
     16 H2          4.9469    -4.0557    92.9986 H          1           0.4335
     17 C12         3.9386    -5.7302    93.5851 C.3        1          -0.0070
     18 C13         2.8114    -6.0799    94.5586 C.3        1          -0.1304
     19 C14         2.5274    -7.5833    94.4948 C.3        1          -0.1636
     20 C15         1.3472    -7.9134    95.4109 C.3        1          -0.0056
     21 N2          0.1597    -7.1707    94.9717 N.4        1          -0.5082
     22 H3         -0.0384    -7.3943    94.0081 H          1           0.4317
     23 H4         -0.6291    -7.4300    95.5452 H          1           0.4426
     24 C16         0.3995    -5.7281    95.0985 C.3        1          -0.0083
     25 C17         1.5433    -5.3140    94.1703 C.3        1          -0.1411
     26 O1          5.8831    -5.8726    95.9817 O.3        1          -0.1514
     27 H5          8.6734    -6.5083    98.4009 H          1           0.1503
     28 H6          9.4297    -8.6054    99.4393 H          1           0.1548
     29 H7          7.4296   -10.8501    96.4101 H          1           0.1564
     30 H8          9.0447    -5.2404    95.6915 H          1           0.1694
     31 H9          7.4160    -3.3208    94.7265 H          1           0.1657
     32 H10         3.7980    -4.1624    95.6983 H          1           0.1508
     33 H11         4.7976    -2.8422    95.0458 H          1           0.1614
     34 H12         3.6435    -6.0067    92.5729 H          1           0.1469
     35 H13         4.8405    -6.2758    93.8625 H          1           0.1425
     36 H14         3.1067    -5.8062    95.5716 H          1           0.1150
     37 H15         2.2829    -7.8643    93.4704 H          1           0.1066
     38 H16         3.4085    -8.1344    94.8235 H          1           0.1086
     39 H17         1.1425    -8.9833    95.3679 H          1           0.1442
     40 H18         1.5929    -7.6323    96.4349 H          1           0.1366
     41 H19        -0.5048    -5.1845    94.8248 H          1           0.1458
     42 H20         0.6655    -5.4936    96.1291 H          1           0.1366
     43 H21         1.7211    -4.2428    94.2671 H          1           0.1257
     44 H22         1.2783    -5.5478    93.1392 H          1           0.1025
@<TRIPOS>BOND
     1    1    2 1
     2    2    8 ar
     3    2    3 ar
     4    3    4 ar
     5    3    9 1
     6    4    5 ar
     7    4   27 1
     8    5    6 ar
     9    5   28 1
    10    6    7 1
    11    6    8 ar
    12    8   29 1
    13    9   26 1
    14    9   10 2
    15   10   11 1
    16   10   30 1
    17   11   12 2
    18   11   31 1
    19   12   13 1
    20   12   26 1
    21   13   14 1
    22   13   32 1
    23   13   33 1
    24   14   15 1
    25   14   16 1
    26   14   17 1
    27   17   18 1
    28   17   34 1
    29   17   35 1
    30   18   25 1
    31   18   19 1
    32   18   36 1
    33   19   20 1
    34   19   37 1
    35   19   38 1
    36   20   21 1
    37   20   39 1
    38   20   40 1
    39   21   22 1
    40   21   23 1
    41   21   24 1
    42   24   25 1
    43   24   41 1
    44   24   42 1
    45   25   43 1
    46   25   44 1
##########                 Name:              T541679
##########          Protonation:                   53
##########               SMILES:   C[NH+](C)CCn1cc(cc1c2[nH]c(=O)c3ccccc3n2)C(=O)c4cc(ccc4O)Cl
##########            Long Name:   oxy-benzoyl)-2-(4-oxo-3H-quinazolin-2-yl)pyrrol-1-yl]ethyl-dimethyl-ammonium
##########          FlexRecCode: 1
##########               Number:                  235
##########   Ligand Source File: /raidb/db2/rgc/tcams/tcams-0002132.db2.gz
##########           GlobalRank: 499
##########                 Rank:                    1
##########               Setnum:                   52
##########             Matchnum:                 3156
##########                Cloud:                    1
##########        Electrostatic:           -42.429745
##########        Van der Waals:           -27.023930
##########  Ligand Polar Desolv:             8.639904
########## Ligand Apolar Desolv:            -2.652385
##########      Internal Energy:             0.000000
##########      Receptor Energy: 0.0
########## Receptor Desolvation:             0.000000
########## Receptor Hydrophobic:             0.000000
##########         Total Energy: -63.47
##########        Ligand Charge:             1.000000
##########            Arbitrary:    +999.9990
##########     heavy atom count:   31
##########           pose count:    1
##########        Ligand Energy:             0.000000
# num electro vdwattr vdwrepu polsolv apolsol rdesolv rhydroe totalscore fullpol fullapo
#   1    1.07   -0.54    0.04   -0.45   -0.13    0.00    0.00      -0.01   -1.68   -0.48
#   2   12.23   -0.95    0.16   -3.82    0.14    0.00    0.00       7.75  -12.23    0.46
#   3  -15.69   -0.02    0.00    3.13    0.11    0.00    0.00     -12.47   15.46    0.56
#   4    2.42   -1.78    0.64   -1.15   -0.22    0.00    0.00      -0.09   -2.44   -0.47
#   5    1.16   -0.49    0.02   -0.36   -0.08    0.00    0.00       0.25   -1.35   -0.32
#   6   -0.52   -0.62    0.16    0.14   -0.08    0.00    0.00      -0.92    0.66   -0.37
#   7    4.99   -0.62    0.05   -1.71    0.22    0.00    0.00       2.94   -8.67    1.12
#   8   -1.42   -0.40    0.02    0.60   -0.14    0.00    0.00      -1.35    4.02   -0.95
#   9    2.90   -0.31    0.01   -0.51   -0.05    0.00    0.00       2.03   -4.14   -0.43
#  10    0.16   -0.45    0.03   -0.10   -0.08    0.00    0.00      -0.45   -0.55   -0.47
#  11    0.08   -0.67    0.06   -0.06   -0.17    0.00    0.00      -0.76   -0.25   -0.73
#  12   -4.51   -1.05    0.17    1.66   -0.56    0.00    0.00      -4.28    6.31   -2.11
#  13    5.88   -1.01    0.08   -1.48    0.59    0.00    0.00       4.07   -4.66    1.87
#  14   -1.80   -1.25    0.12    0.35   -0.26    0.00    0.00      -2.84    0.96   -0.72
#  15    1.39   -1.60    0.19   -0.51   -0.22    0.00    0.00      -0.76   -1.05   -0.46
#  16    1.10   -2.43    0.56   -0.33   -0.27    0.00    0.00      -1.37   -0.57   -0.47
#  17    2.07   -2.44    0.92   -0.70   -0.26    0.00    0.00      -0.42   -1.26   -0.47
#  18    0.50   -1.51    0.20   -0.24   -0.21    0.00    0.00      -1.25   -0.52   -0.45
#  19    2.07   -1.40    0.24   -0.74   -0.15    0.00    0.00       0.02   -2.05   -0.41
#  20   -4.84   -1.59    0.82    2.04   -0.21    0.00    0.00      -3.78    6.43   -0.67
#  21    4.62   -1.20    0.23   -2.09    0.16    0.00    0.00       1.71   -5.70    0.43
#  22    5.50   -1.34    0.54   -2.64    0.35    0.00    0.00       2.41  -10.27    1.37
#  23   -4.77   -0.20    0.00    0.34   -0.02    0.00    0.00      -4.65    4.37   -0.28
#  24    2.04   -0.10    0.00   -0.19    0.02    0.00    0.00       1.77   -3.43    0.43
#  25    2.22   -0.32    0.01   -0.17   -0.05    0.00    0.00       1.70   -1.30   -0.36
#  26    0.52   -0.23    0.01   -0.04   -0.04    0.00    0.00       0.20   -0.48   -0.45
#  27    0.49   -0.43    0.03   -0.07   -0.05    0.00    0.00      -0.03   -0.43   -0.30
#  28    0.15   -1.24    0.42   -0.08   -0.18    0.00    0.00      -0.93   -0.43   -0.99
#  29    1.47   -0.73    0.04   -0.18   -0.13    0.00    0.00       0.48   -0.61   -0.46
#  30    3.64   -1.39    0.29   -0.35   -0.15    0.00    0.00       2.05   -1.09   -0.46
#  31   -3.59   -1.02    0.16    0.29   -0.08    0.00    0.00      -4.23    1.18   -0.31
#  32   17.81   -2.31    1.38   -1.50    0.36    0.00    0.00      15.73   -4.64    1.11
#  33   -3.03   -0.15    0.00    0.71   -0.04    0.00    0.00      -2.51    4.63   -0.28
#  34   -2.57   -0.32    0.10    0.66   -0.07    0.00    0.00      -2.20    2.79   -0.28
#  35   -1.92   -0.08    0.00    0.35   -0.02    0.00    0.00      -1.67    4.60   -0.28
#  36   -6.77   -0.78    0.85    2.17   -0.13    0.00    0.00      -4.65    4.76   -0.28
#  37   -6.14   -1.13    1.31    2.47   -0.14    0.00    0.00      -3.62    5.10   -0.28
#  38   -4.27   -0.49    0.12    2.33   -0.10    0.00    0.00      -2.41    5.48   -0.23
#  39   -4.14   -0.16    0.01    1.00   -0.04    0.00    0.00      -3.33    6.81   -0.28
#  40   -2.93   -0.15    0.00    0.38   -0.03    0.00    0.00      -2.73    2.72   -0.21
#  41    0.06   -0.50    0.63    0.70   -0.05    0.00    0.00       0.85    3.40   -0.22
#  42   -0.83   -0.17    0.03    1.07   -0.03    0.00    0.00       0.08    8.07   -0.21
#  43   -2.30   -0.06    0.00    0.37   -0.02    0.00    0.00      -2.01    6.51   -0.28
#  44   -1.86   -0.09    0.01    0.07   -0.02    0.00    0.00      -1.90    0.81   -0.28
#  45   -2.22   -0.34    0.08    0.35   -0.09    0.00    0.00      -2.23    1.04   -0.28
#  46   -2.90   -0.70    0.17    1.04   -0.16    0.00    0.00      -2.55    1.80   -0.28
#  47   -3.06   -0.76    0.48    0.91   -0.14    0.00    0.00      -2.58    1.76   -0.28
#  48   -1.51   -0.26    0.02    0.38   -0.08    0.00    0.00      -1.45    1.23   -0.27
#  49   -2.87   -0.01    0.00    1.36    0.02    0.00    0.00      -1.49    9.98    0.18
#  50   -0.73   -0.03    0.00    0.03   -0.01    0.00    0.00      -0.73    1.05   -0.28
#  51   -3.67   -0.19    0.01    0.30   -0.07    0.00    0.00      -3.62    1.27   -0.28
#  52   -5.93   -0.65    0.36    0.63   -0.11    0.00    0.00      -5.70    1.68   -0.28
#  53  -22.15   -0.17    0.03    2.24    0.49    0.00    0.00     -19.55    5.55    1.22

@<TRIPOS>MOLECULE
          T541679        53
   53    56     0     0     0



@<TRIPOS>ATOM
      1 C1          2.5811    -5.4546    93.1379 C.3        1          -0.0493
      2 N1          3.9976    -5.3491    93.5127 N.4        1          -0.3869
      3 H1          4.5740    -5.5801    92.7175 H          1           0.4293
      4 C2          4.2885    -3.9760    93.9462 C.3        1          -0.0579
      5 C3          4.2838    -6.2807    94.6119 C.3        1          -0.0514
      6 C4          3.9808    -7.7108    94.1605 C.3        1           0.0613
      7 N2          4.8177    -8.0462    93.0059 N.pl3      1          -0.4351
      8 C5          4.4868    -7.8416    91.7191 C.2        1           0.1109
      9 C6          5.5285    -8.2856    90.9259 C.2        1          -0.2320
     10 C7          6.5297    -8.7798    91.7952 C.2        1          -0.0130
     11 C8          6.0701    -8.6153    93.0673 C.2        1          -0.0066
     12 C9          6.7869    -8.9860    94.2953 C.2        1           0.4501
     13 N3          6.5575    -8.2955    95.3868 N.2        1          -0.4773
     14 C10         7.1794    -8.5804    96.5471 C.ar       1           0.1518
     15 C11         6.9321    -7.8422    97.7091 C.ar       1          -0.0984
     16 C12         7.5819    -8.1614    98.8675 C.ar       1          -0.0645
     17 C13         8.4891    -9.2123    98.9121 C.ar       1          -0.1235
     18 C14         8.7544    -9.9580    97.7841 C.ar       1          -0.0422
     19 C15         8.1027    -9.6504    96.5912 C.ar       1          -0.2007
     20 C16         8.3449   -10.4113    95.3571 C.2        1           0.5573
     21 O1          9.1282   -11.3428    95.3332 O.2        1          -0.5137
     22 N4          7.6605   -10.0411    94.2496 N.am       1          -0.6770
     23 C17         5.5851    -8.2515    89.4542 C.2        1           0.4848
     24 O2          4.7505    -8.8471    88.7994 O.2        1          -0.4414
     25 C18         6.6536    -7.4950    88.7744 C.ar       1          -0.1652
     26 C19         7.5393    -8.1490    87.9134 C.ar       1          -0.0584
     27 C20         8.5357    -7.4360    87.2814 C.ar       1          -0.0455
     28 Cl1         9.6353    -8.2491    86.2122 Cl         1          -0.0519
     29 C21         8.6629    -6.0719    87.4958 C.ar       1          -0.0727
     30 C22         7.7947    -5.4141    88.3442 C.ar       1          -0.1304
     31 C23         6.7829    -6.1147    88.9838 C.ar       1           0.1485
     32 O3          5.9256    -5.4682    89.8130 O.3        1          -0.4894
     33 H2          1.9585    -5.2051    93.9971 H          1           0.1350
     34 H3          2.3687    -4.7632    92.3224 H          1           0.1256
     35 H4          2.3651    -6.4733    92.8163 H          1           0.1288
     36 H5          5.3396    -3.8978    94.2243 H          1           0.1353
     37 H6          4.0760    -3.2849    93.1306 H          1           0.1308
     38 H7          3.6659    -3.7267    94.8053 H          1           0.1247
     39 H8          5.3349    -6.2026    94.8901 H          1           0.1583
     40 H9          3.6612    -6.0313    95.4711 H          1           0.1358
     41 H10         4.1932    -8.4019    94.9762 H          1           0.1132
     42 H11         2.9297    -7.7890    93.8824 H          1           0.1396
     43 H12         3.5644    -7.4053    91.3652 H          1           0.1957
     44 H13         7.4802    -9.2029    91.5054 H          1           0.1700
     45 H14         6.2297    -7.0219    97.6904 H          1           0.1471
     46 H15         7.3875    -7.5881    99.7619 H          1           0.1430
     47 H16         8.9912    -9.4469    99.8391 H          1           0.1412
     48 H17         9.4607   -10.7739    97.8242 H          1           0.1417
     49 H18         7.7919   -10.5228    93.4181 H          1           0.3897
     50 H19         7.4435    -9.2112    87.7438 H          1           0.1422
     51 H20         9.4460    -5.5207    86.9964 H          1           0.1456
     52 H21         7.9006    -4.3518    88.5065 H          1           0.1480
     53 H22         6.0954    -4.5196    89.8925 H          1           0.3990
@<TRIPOS>BOND
     1    1    2 1
     2    1   33 1
     3    1   34 1
     4    1   35 1
     5    2    3 1
     6    2    4 1
     7    2    5 1
     8    4   36 1
     9    4   37 1
    10    4   38 1
    11    5    6 1
    12    5   39 1
    13    5   40 1
    14    6    7 1
    15    6   41 1
    16    6   42 1
    17    7   11 1
    18    7    8 1
    19    8    9 2
    20    8   43 1
    21    9   10 1
    22    9   23 1
    23   10   11 2
    24   10   44 1
    25   11   12 1
    26   12   22 1
    27   12   13 2
    28   13   14 1
    29   14   19 ar
    30   14   15 ar
    31   15   16 ar
    32   15   45 1
    33   16   17 ar
    34   16   46 1
    35   17   18 ar
    36   17   47 1
    37   18   19 ar
    38   18   48 1
    39   19   20 1
    40   20   21 2
    41   20   22 am
    42   22   49 1
    43   23   24 2
    44   23   25 1
    45   25   31 ar
    46   25   26 ar
    47   26   27 ar
    48   26   50 1
    49   27   28 1
    50   27   29 ar
    51   29   30 ar
    52   29   51 1
    53   30   31 ar
    54   30   52 1
    55   31   32 1
    56   32   53 1
##########                 Name:              T524772
##########          Protonation:                   13
##########               SMILES:   CC1(NC(=[NH2+])NC(=[NH2+])N1OCCCc2ccc(cc2)OC)C
##########            Long Name:   [3-(4-methoxyphenyl)propoxy]-6,6-dimethyl-1,3,5-triazinan-2-ylidene]ammonium
##########          FlexRecCode: 1
##########               Number:                  422
##########   Ligand Source File: /raidb/db2/rgc/tcams/tcams-0000004.db2.gz
##########           GlobalRank: 502
##########                 Rank:                    1
##########               Setnum:                  273
##########             Matchnum:                  832
##########                Cloud:                    1
##########        Electrostatic:           -64.201584
##########        Van der Waals:           -21.320024
##########  Ligand Polar Desolv:            24.743395
########## Ligand Apolar Desolv:            -2.683615
##########      Internal Energy:             0.000000
##########      Receptor Energy: 0.0
########## Receptor Desolvation:             0.000000
########## Receptor Hydrophobic:             0.000000
##########         Total Energy: -63.46
##########        Ligand Charge:             2.000000
##########            Arbitrary:    +999.9990
##########     heavy atom count:   22
##########           pose count:    1
##########        Ligand Energy:             0.000000
# num electro vdwattr vdwrepu polsolv apolsol rdesolv rhydroe totalscore fullpol fullapo
#   1   -0.19   -1.54    0.30    0.12    0.02    0.00    0.00      -1.30    0.20    0.03
#   2    2.41   -1.38    0.16   -1.45    0.47    0.00    0.00       0.21   -2.85    0.93
#   3   -0.82   -1.44    0.17    0.08   -0.13    0.00    0.00      -2.14    0.19   -0.31
#   4    0.48   -1.81    0.50   -1.07   -0.15    0.00    0.00      -2.05   -3.02   -0.43
#   5    0.39   -1.42    0.30   -0.53   -0.16    0.00    0.00      -1.41   -1.57   -0.46
#   6    1.62   -1.27    0.11   -0.79   -0.14    0.00    0.00      -0.46   -2.08   -0.36
#   7    1.05   -0.91    0.13   -0.76   -0.10    0.00    0.00      -0.59   -1.79   -0.23
#   8    1.82   -0.75    0.06   -1.23   -0.09    0.00    0.00      -0.20   -3.28   -0.24
#   9   -0.02   -1.61    0.75    0.21   -0.05    0.00    0.00      -0.73    0.50   -0.12
#  10    1.77   -1.30    0.14   -1.78    0.18    0.00    0.00      -0.98   -4.15    0.43
#  11   13.17   -0.99    0.05   -7.47    0.31    0.00    0.00       5.06  -21.12    0.87
#  12  -30.19   -2.02    0.89   14.18   -1.74    0.00    0.00     -18.88   35.57   -4.36
#  13   33.35   -4.53    5.04  -16.11    0.47    0.00    0.00      18.23  -30.63    0.89
#  14  -18.89   -0.05    0.00   11.66    0.24    0.00    0.00      -7.04   21.43    0.45
#  15  -31.97   -0.32    0.24   13.41    0.33    0.00    0.00     -18.31   24.03    0.60
#  16   26.93   -2.43    2.29   -9.18    0.34    0.00    0.00      17.95  -31.11    1.15
#  17  -18.19   -0.84    0.09    9.00   -1.09    0.00    0.00     -11.03   37.26   -4.52
#  18   12.20   -0.81    0.08   -7.67    0.22    0.00    0.00       4.02  -31.34    0.89
#  19  -11.03   -0.02    0.00    5.30    0.13    0.00    0.00      -5.61   24.37    0.60
#  20   -4.29   -0.01    0.00    2.25    0.06    0.00    0.00      -1.99   23.50    0.60
#  21   11.07   -0.50    0.01   -6.25    0.30    0.00    0.00       4.63  -32.10    1.53
#  22   -8.45   -0.47    0.02    4.75   -0.10    0.00    0.00      -4.25   17.81   -0.38
#  23    3.98   -0.58    0.04   -2.65   -0.06    0.00    0.00       0.72   -8.03   -0.18
#  24    3.59   -0.95    0.19   -2.31   -0.06    0.00    0.00       0.46   -6.67   -0.16
#  25    0.89   -1.59    0.26   -0.65   -0.22    0.00    0.00      -1.32   -1.37   -0.46
#  26    1.37   -1.61    0.37   -1.13   -0.21    0.00    0.00      -1.21   -2.52   -0.46
#  27   -0.56   -0.72    0.28    0.43   -0.15    0.00    0.00      -0.73    0.75   -0.27
#  28   -0.78   -0.44    0.08    0.51   -0.12    0.00    0.00      -0.75    1.20   -0.28
#  29   -0.42   -0.58    0.19    0.51   -0.15    0.00    0.00      -0.44    0.90   -0.27
#  30    0.19   -0.58    0.34    0.45   -0.06    0.00    0.00       0.34    1.59   -0.22
#  31   -0.58   -0.27    0.08    0.67   -0.05    0.00    0.00      -0.15    3.55   -0.28
#  32   -1.20   -0.45    0.24    1.33   -0.10    0.00    0.00      -0.18    3.58   -0.28
#  33   -1.70   -0.31    0.05    0.89   -0.09    0.00    0.00      -1.16    2.88   -0.28
#  34   -1.43   -0.14    0.01    0.15   -0.03    0.00    0.00      -1.45    1.26   -0.28
#  35   -0.95   -0.30    0.04    0.60   -0.09    0.00    0.00      -0.70    1.89   -0.28
#  36   -1.64   -1.68    3.65    2.47   -0.10    0.00    0.00       2.70    5.55   -0.22
#  37   -2.85   -0.44    0.14    1.40   -0.09    0.00    0.00      -1.85    4.17   -0.27
#  38  -23.95   -0.09    0.02    6.58    0.15    0.00    0.00     -17.29   25.89    0.59
#  39   -4.30   -0.01    0.00    1.44    0.04    0.00    0.00      -2.83   21.18    0.58
#  40   -2.30   -0.17    0.01    0.65   -0.05    0.00    0.00      -1.86    3.42   -0.27
#  41   -1.74   -0.18    0.01    0.78   -0.05    0.00    0.00      -1.18    4.14   -0.28
#  42   -1.96   -0.27    0.05    1.41   -0.07    0.00    0.00      -0.85    5.02   -0.26
#  43   -1.70   -0.19    0.02    0.40   -0.05    0.00    0.00      -1.52    2.11   -0.28
#  44   -2.72   -0.38    0.07    1.25   -0.09    0.00    0.00      -1.87    3.87   -0.28
#  45   -2.24   -0.74    0.87    0.85   -0.09    0.00    0.00      -1.35    2.59   -0.26
#  46   -2.13   -0.32    0.03    1.69   -0.12    0.00    0.00      -0.85    4.10   -0.28
#  47   -1.33   -0.31    0.05    0.36   -0.10    0.00    0.00      -1.33    1.04   -0.28

@<TRIPOS>MOLECULE
          T524772        13
   47    48     0     0     0



@<TRIPOS>ATOM
      1 C1          8.8587   -13.1091    97.4703 C.3        1           0.0241
      2 O1          7.9404   -12.5976    96.5022 O.3        1          -0.3135
      3 C2          7.6170   -11.2808    96.5940 C.ar       1           0.1407
      4 C3          6.7268   -10.7193    95.6901 C.ar       1          -0.2064
      5 C4          6.3994    -9.3807    95.7858 C.ar       1          -0.0701
      6 C5          6.9582    -8.6005    96.7811 C.ar       1          -0.1447
      7 C6          6.5996    -7.1404    96.8829 C.3        1          -0.0638
      8 C7          5.1756    -6.9277    96.3655 C.3        1          -0.1113
      9 C8          4.8114    -5.4452    96.4689 C.3        1           0.0009
     10 O2          3.4814    -5.2466    95.9856 O.3        1          -0.0701
     11 N1          3.3837    -5.1926    94.5739 N.pl3      1          -0.4878
     12 C9          4.4301    -4.7170    93.7971 C.cat      1           0.7642
     13 N2          5.0783    -3.6302    94.1059 N.pl3      1          -0.6725
     14 H1          4.8335    -3.1282    94.8990 H          1           0.4604
     15 H2          5.8058    -3.3228    93.5427 H          1           0.4597
     16 N3          4.7485    -5.4692    92.6674 N.pl3      1          -0.6712
     17 C10         3.6661    -6.0156    91.9791 C.cat      1           0.7710
     18 N4          3.6380    -6.0785    90.6785 N.pl3      1          -0.6672
     19 H3          4.3845    -5.7394    90.1603 H          1           0.4603
     20 H4          2.8704    -6.4645    90.2280 H          1           0.4685
     21 N5          2.6210    -6.4889    92.7591 N.pl3      1          -0.7076
     22 C11         2.1692    -5.6449    93.8735 C.3        1           0.4035
     23 C12         1.2866    -6.4575    94.8230 C.3        1          -0.1916
     24 C13         1.3936    -4.4410    93.3351 C.3        1          -0.1737
     25 C14         7.8453    -9.1578    97.6835 C.ar       1          -0.0726
     26 C15         8.1720   -10.4972    97.5952 C.ar       1          -0.1502
     27 H5          9.0303   -14.1693    97.2838 H          1           0.0594
     28 H6          9.8030   -12.5698    97.3959 H          1           0.1076
     29 H7          8.4434   -12.9785    98.4696 H          1           0.0582
     30 H8          6.2905   -11.3282    94.9121 H          1           0.1330
     31 H9          5.7064    -8.9431    95.0824 H          1           0.1243
     32 H10         6.6589    -6.8235    97.9242 H          1           0.0767
     33 H11         7.2954    -6.5527    96.2841 H          1           0.0792
     34 H12         5.1162    -7.2446    95.3243 H          1           0.0921
     35 H13         4.4798    -7.5154    96.9644 H          1           0.0875
     36 H14         4.8708    -5.1283    97.5101 H          1           0.0674
     37 H15         5.5072    -4.8576    95.8700 H          1           0.0934
     38 H16         5.6647    -5.6037    92.3785 H          1           0.4807
     39 H17         2.2049    -7.3461    92.5772 H          1           0.4661
     40 H18         0.3917    -6.7869    94.2949 H          1           0.1132
     41 H19         1.8395    -7.3272    95.1782 H          1           0.1242
     42 H20         0.9997    -5.8376    95.6723 H          1           0.0692
     43 H21         0.4979    -4.7870    92.8192 H          1           0.1008
     44 H22         1.1082    -3.7927    94.1635 H          1           0.1149
     45 H23         2.0221    -3.8856    92.6390 H          1           0.1110
     46 H24         8.2803    -8.5464    98.4603 H          1           0.1269
     47 H25         8.8621   -10.9329    98.3025 H          1           0.1353
@<TRIPOS>BOND
     1    1    2 1
     2    1   27 1
     3    1   28 1
     4    1   29 1
     5    2    3 1
     6    3   26 ar
     7    3    4 ar
     8    4    5 ar
     9    4   30 1
    10    5    6 ar
    11    5   31 1
    12    6    7 1
    13    6   25 ar
    14    7    8 1
    15    7   32 1
    16    7   33 1
    17    8    9 1
    18    8   34 1
    19    8   35 1
    20    9   10 1
    21    9   36 1
    22    9   37 1
    23   10   11 1
    24   11   22 1
    25   11   12 1
    26   12   13 2
    27   12   16 1
    28   13   14 1
    29   13   15 1
    30   16   17 1
    31   16   38 1
    32   17   18 2
    33   17   21 1
    34   18   19 1
    35   18   20 1
    36   21   22 1
    37   21   39 1
    38   22   23 1
    39   22   24 1
    40   23   40 1
    41   23   41 1
    42   23   42 1
    43   24   43 1
    44   24   44 1
    45   24   45 1
    46   25   26 ar
    47   25   46 1
    48   26   47 1
